Program Version,EnergyPlus, Version 9.1.0-08d2e308bb, YMD=2020.03.25 18:34
! This file shows details about the branches, nodes, and other
! elements of the flow connections.
! This file is intended for use in "debugging" potential problems
! that may also be detected by the program, but may be more easily
! identified by "eye".
! This file is also intended to support software which draws a
! schematic diagram of the HVAC system.
! ===============================================================
! #Nodes,<Number of Unique Nodes>
 #Nodes,413
! <Node>,<NodeNumber>,<Node Name>,<Node Fluid Type>,<# Times Node Referenced After Definition>
 Node,1,NODE 68,Air,4
 Node,2,NODE 75,Air,2
 Node,3,NODE 80,Air,4
 Node,4,NODE 87,Air,2
 Node,5,NODE 56,Air,4
 Node,6,NODE 63,Air,2
 Node,7,NODE 44,Air,4
 Node,8,NODE 51,Air,2
 Node,9,NODE 92,Air,4
 Node,10,NODE 99,Air,2
 Node,11,NODE 104,Air,4
 Node,12,NODE 111,Air,2
 Node,13,NODE 32,Air,4
 Node,14,NODE 39,Air,2
 Node,15,NODE 164,Air,4
 Node,16,NODE 171,Air,2
 Node,17,NODE 176,Air,4
 Node,18,NODE 183,Air,2
 Node,19,NODE 152,Air,4
 Node,20,NODE 159,Air,2
 Node,21,NODE 128,Air,4
 Node,22,NODE 135,Air,2
 Node,23,NODE 188,Air,4
 Node,24,NODE 195,Air,2
 Node,25,NODE 200,Air,4
 Node,26,NODE 207,Air,2
 Node,27,NODE 140,Air,4
 Node,28,NODE 147,Air,2
 Node,29,NODE 116,Air,4
 Node,30,NODE 123,Air,2
 Node,31,NODE 308,Air,4
 Node,32,NODE 315,Air,2
 Node,33,NODE 260,Air,4
 Node,34,NODE 267,Air,2
 Node,35,NODE 272,Air,4
 Node,36,NODE 279,Air,2
 Node,37,NODE 248,Air,4
 Node,38,NODE 255,Air,2
 Node,39,NODE 224,Air,4
 Node,40,NODE 231,Air,2
 Node,41,NODE 284,Air,4
 Node,42,NODE 291,Air,2
 Node,43,NODE 296,Air,4
 Node,44,NODE 303,Air,2
 Node,45,NODE 236,Air,4
 Node,46,NODE 243,Air,2
 Node,47,NODE 212,Air,4
 Node,48,NODE 219,Air,2
 Node,49,NODE 65,Air,12
 Node,50,NODE 66,Air,3
 Node,51,NODE 77,Air,12
 Node,52,NODE 78,Air,3
 Node,53,NODE 53,Air,12
 Node,54,NODE 54,Air,3
 Node,55,NODE 41,Air,12
 Node,56,NODE 42,Air,3
 Node,57,NODE 89,Air,12
 Node,58,NODE 90,Air,3
 Node,59,NODE 101,Air,12
 Node,60,NODE 102,Air,3
 Node,61,NODE 29,Air,12
 Node,62,NODE 30,Air,3
 Node,63,NODE 161,Air,12
 Node,64,NODE 162,Air,3
 Node,65,NODE 173,Air,12
 Node,66,NODE 174,Air,3
 Node,67,NODE 149,Air,12
 Node,68,NODE 150,Air,3
 Node,69,NODE 125,Air,12
 Node,70,NODE 126,Air,3
 Node,71,NODE 185,Air,12
 Node,72,NODE 186,Air,3
 Node,73,NODE 197,Air,12
 Node,74,NODE 198,Air,3
 Node,75,NODE 137,Air,12
 Node,76,NODE 138,Air,3
 Node,77,NODE 113,Air,12
 Node,78,NODE 114,Air,3
 Node,79,NODE 305,Air,12
 Node,80,NODE 306,Air,3
 Node,81,NODE 257,Air,12
 Node,82,NODE 258,Air,3
 Node,83,NODE 269,Air,12
 Node,84,NODE 270,Air,3
 Node,85,NODE 245,Air,12
 Node,86,NODE 246,Air,3
 Node,87,NODE 221,Air,12
 Node,88,NODE 222,Air,3
 Node,89,NODE 281,Air,12
 Node,90,NODE 282,Air,3
 Node,91,NODE 293,Air,12
 Node,92,NODE 294,Air,3
 Node,93,NODE 233,Air,12
 Node,94,NODE 234,Air,3
 Node,95,NODE 209,Air,12
 Node,96,NODE 210,Air,3
 Node,97,NODE 64,Air,4
 Node,98,NODE 74,Air,8
 Node,99,NODE 73,Air,6
 Node,100,NODE 72,Air,5
 Node,101,NODE 71,Air,9
 Node,102,NODE 76,Air,4
 Node,103,NODE 86,Air,8
 Node,104,NODE 85,Air,6
 Node,105,NODE 84,Air,5
 Node,106,NODE 83,Air,9
 Node,107,NODE 52,Air,4
 Node,108,NODE 62,Air,8
 Node,109,NODE 61,Air,6
 Node,110,NODE 60,Air,5
 Node,111,NODE 59,Air,9
 Node,112,NODE 40,Air,4
 Node,113,NODE 50,Air,8
 Node,114,NODE 49,Air,6
 Node,115,NODE 48,Air,5
 Node,116,NODE 47,Air,9
 Node,117,NODE 88,Air,4
 Node,118,NODE 98,Air,8
 Node,119,NODE 97,Air,6
 Node,120,NODE 96,Air,5
 Node,121,NODE 95,Air,9
 Node,122,NODE 100,Air,4
 Node,123,NODE 110,Air,8
 Node,124,NODE 109,Air,6
 Node,125,NODE 108,Air,5
 Node,126,NODE 107,Air,9
 Node,127,NODE 28,Air,4
 Node,128,NODE 38,Air,8
 Node,129,NODE 37,Air,6
 Node,130,NODE 36,Air,5
 Node,131,NODE 35,Air,9
 Node,132,NODE 160,Air,4
 Node,133,NODE 170,Air,8
 Node,134,NODE 169,Air,6
 Node,135,NODE 168,Air,5
 Node,136,NODE 167,Air,9
 Node,137,NODE 172,Air,4
 Node,138,NODE 182,Air,8
 Node,139,NODE 181,Air,6
 Node,140,NODE 180,Air,5
 Node,141,NODE 179,Air,9
 Node,142,NODE 148,Air,4
 Node,143,NODE 158,Air,8
 Node,144,NODE 157,Air,6
 Node,145,NODE 156,Air,5
 Node,146,NODE 155,Air,9
 Node,147,NODE 124,Air,4
 Node,148,NODE 134,Air,8
 Node,149,NODE 133,Air,6
 Node,150,NODE 132,Air,5
 Node,151,NODE 131,Air,9
 Node,152,NODE 184,Air,4
 Node,153,NODE 194,Air,8
 Node,154,NODE 193,Air,6
 Node,155,NODE 192,Air,5
 Node,156,NODE 191,Air,9
 Node,157,NODE 196,Air,4
 Node,158,NODE 206,Air,8
 Node,159,NODE 205,Air,6
 Node,160,NODE 204,Air,5
 Node,161,NODE 203,Air,9
 Node,162,NODE 136,Air,4
 Node,163,NODE 146,Air,8
 Node,164,NODE 145,Air,6
 Node,165,NODE 144,Air,5
 Node,166,NODE 143,Air,9
 Node,167,NODE 112,Air,4
 Node,168,NODE 122,Air,8
 Node,169,NODE 121,Air,6
 Node,170,NODE 120,Air,5
 Node,171,NODE 119,Air,9
 Node,172,NODE 304,Air,3
 Node,173,NODE 314,Air,6
 Node,174,NODE 313,Air,6
 Node,175,NODE 312,Air,5
 Node,176,NODE 311,Air,9
 Node,177,NODE 256,Air,4
 Node,178,NODE 266,Air,8
 Node,179,NODE 265,Air,6
 Node,180,NODE 264,Air,5
 Node,181,NODE 263,Air,9
 Node,182,NODE 268,Air,4
 Node,183,NODE 278,Air,8
 Node,184,NODE 277,Air,6
 Node,185,NODE 276,Air,5
 Node,186,NODE 275,Air,9
 Node,187,NODE 244,Air,4
 Node,188,NODE 254,Air,8
 Node,189,NODE 253,Air,6
 Node,190,NODE 252,Air,5
 Node,191,NODE 251,Air,9
 Node,192,NODE 220,Air,3
 Node,193,NODE 230,Air,6
 Node,194,NODE 229,Air,6
 Node,195,NODE 228,Air,5
 Node,196,NODE 227,Air,9
 Node,197,NODE 280,Air,4
 Node,198,NODE 290,Air,8
 Node,199,NODE 289,Air,6
 Node,200,NODE 288,Air,5
 Node,201,NODE 287,Air,9
 Node,202,NODE 292,Air,4
 Node,203,NODE 302,Air,8
 Node,204,NODE 301,Air,6
 Node,205,NODE 300,Air,5
 Node,206,NODE 299,Air,9
 Node,207,NODE 232,Air,3
 Node,208,NODE 242,Air,6
 Node,209,NODE 241,Air,6
 Node,210,NODE 240,Air,5
 Node,211,NODE 239,Air,9
 Node,212,NODE 208,Air,3
 Node,213,NODE 218,Air,6
 Node,214,NODE 217,Air,6
 Node,215,NODE 216,Air,5
 Node,216,NODE 215,Air,9
 Node,217,NODE 330,Water,2
 Node,218,NODE 338,Water,1
 Node,219,NODE 332,Water,1
 Node,220,NODE 340,Water,1
 Node,221,NODE 343,Water,1
 Node,222,NODE 318,Water,1
 Node,223,NODE 339,Water,1
 Node,224,NODE 317,Water,4
 Node,225,NODE 333,Water,2
 Node,226,NODE 342,Water,1
 Node,227,NODE 316,Water,1
 Node,228,NODE 417,Water,1
 Node,229,NODE 319,Water,1
 Node,230,NODE 320,Water,1
 Node,231,PLANT LOOP 1 DEMAND BYPASS PIPE INLET NODE,Water,1
 Node,232,PLANT LOOP 1 DEMAND BYPASS PIPE OUTLET NODE,Water,1
 Node,233,NODE 341,Water,1
 Node,234,NODE 336,Water,2
 Node,235,NODE 321,Water,2
 Node,236,NODE 322,Water,1
 Node,237,NODE 323,Water,1
 Node,238,NODE 331,Water,1
 Node,239,NODE 344,Water,1
 Node,240,NODE 345,Water,1
 Node,241,NODE 327,Water,1
 Node,242,NODE 418,Water,4
 Node,243,NODE 324,Water,2
 Node,244,NODE 328,Water,1
 Node,245,NODE 326,Water,1
 Node,246,NODE 334,Water,1
 Node,247,NODE 335,Water,1
 Node,248,NODE 337,Water,1
 Node,249,PLANT LOOP 2 DEMAND BYPASS PIPE INLET NODE,Water,1
 Node,250,PLANT LOOP 2 DEMAND BYPASS PIPE OUTLET NODE,Water,1
 Node,251,NODE 329,Water,1
 Node,252,NODE 325,Water,2
 Node,253,NODE 2,Air,1
 Node,254,NODE 3,Air,1
 Node,255,NODE 4,Air,1
 Node,256,NODE 5,Air,1
 Node,257,NODE 6,Air,1
 Node,258,NODE 7,Air,1
 Node,259,NODE 8,Air,1
 Node,260,NODE 10,Air,1
 Node,261,NODE 11,Air,1
 Node,262,NODE 12,Air,1
 Node,263,NODE 13,Air,1
 Node,264,NODE 14,Air,1
 Node,265,NODE 15,Air,1
 Node,266,NODE 16,Air,1
 Node,267,NODE 17,Air,1
 Node,268,NODE 18,Air,1
 Node,269,NODE 20,Air,1
 Node,270,NODE 21,Air,1
 Node,271,NODE 22,Air,1
 Node,272,NODE 23,Air,1
 Node,273,NODE 24,Air,1
 Node,274,NODE 25,Air,1
 Node,275,NODE 26,Air,1
 Node,276,NODE 27,Air,1
 Node,277,NODE 67,Air,2
 Node,278,NODE 79,Air,2
 Node,279,NODE 55,Air,2
 Node,280,NODE 43,Air,2
 Node,281,NODE 91,Air,2
 Node,282,NODE 103,Air,2
 Node,283,NODE 31,Air,2
 Node,284,NODE 163,Air,2
 Node,285,NODE 175,Air,2
 Node,286,NODE 151,Air,2
 Node,287,NODE 127,Air,2
 Node,288,NODE 187,Air,2
 Node,289,NODE 199,Air,2
 Node,290,NODE 139,Air,2
 Node,291,NODE 115,Air,2
 Node,292,NODE 307,Air,2
 Node,293,NODE 259,Air,2
 Node,294,NODE 271,Air,2
 Node,295,NODE 247,Air,2
 Node,296,NODE 223,Air,2
 Node,297,NODE 283,Air,2
 Node,298,NODE 295,Air,2
 Node,299,NODE 235,Air,2
 Node,300,NODE 211,Air,2
 Node,301,NODE 69,Air,3
 Node,302,NODE 81,Air,3
 Node,303,NODE 57,Air,3
 Node,304,NODE 45,Air,3
 Node,305,NODE 93,Air,3
 Node,306,NODE 105,Air,3
 Node,307,NODE 33,Air,3
 Node,308,NODE 165,Air,3
 Node,309,NODE 177,Air,3
 Node,310,NODE 153,Air,3
 Node,311,NODE 129,Air,3
 Node,312,NODE 189,Air,3
 Node,313,NODE 201,Air,3
 Node,314,NODE 141,Air,3
 Node,315,NODE 117,Air,3
 Node,316,NODE 309,Air,2
 Node,317,NODE 261,Air,3
 Node,318,NODE 273,Air,3
 Node,319,NODE 249,Air,3
 Node,320,NODE 225,Air,2
 Node,321,NODE 285,Air,3
 Node,322,NODE 297,Air,3
 Node,323,NODE 237,Air,2
 Node,324,NODE 213,Air,2
 Node,325,MODEL OUTDOOR AIR NODE,Air,0
 Node,326,NODE 377,Air,2
 Node,327,NODE 379,Air,2
 Node,328,NODE 381,Air,2
 Node,329,NODE 383,Air,2
 Node,330,NODE 385,Air,2
 Node,331,NODE 387,Air,2
 Node,332,NODE 389,Air,2
 Node,333,NODE 391,Air,2
 Node,334,NODE 393,Air,2
 Node,335,NODE 395,Air,2
 Node,336,NODE 397,Air,2
 Node,337,NODE 399,Air,2
 Node,338,NODE 401,Air,2
 Node,339,NODE 403,Air,2
 Node,340,NODE 405,Air,2
 Node,341,NODE 407,Air,2
 Node,342,NODE 409,Air,2
 Node,343,NODE 411,Air,2
 Node,344,NODE 413,Air,2
 Node,345,NODE 415,Air,2
 Node,346,G N1 APARTMENT ZN SAC DIFFUSER INLET NODE,Air,1
 Node,347,G N2 APARTMENT ZN SAC DIFFUSER INLET NODE,Air,1
 Node,348,G NE APARTMENT ZN SAC DIFFUSER INLET NODE,Air,1
 Node,349,G NW APARTMENT ZN SAC DIFFUSER INLET NODE,Air,1
 Node,350,G S1 APARTMENT ZN SAC DIFFUSER INLET NODE,Air,1
 Node,351,G S2 APARTMENT ZN SAC DIFFUSER INLET NODE,Air,1
 Node,352,G SW APARTMENT ZN SAC DIFFUSER INLET NODE,Air,1
 Node,353,M N1 APARTMENT ZN SAC DIFFUSER INLET NODE,Air,1
 Node,354,M N2 APARTMENT ZN SAC DIFFUSER INLET NODE,Air,1
 Node,355,M NE APARTMENT ZN SAC DIFFUSER INLET NODE,Air,1
 Node,356,M NW APARTMENT ZN SAC DIFFUSER INLET NODE,Air,1
 Node,357,M S1 APARTMENT ZN SAC DIFFUSER INLET NODE,Air,1
 Node,358,M S2 APARTMENT ZN SAC DIFFUSER INLET NODE,Air,1
 Node,359,M SE APARTMENT ZN SAC DIFFUSER INLET NODE,Air,1
 Node,360,M SW APARTMENT ZN SAC DIFFUSER INLET NODE,Air,1
 Node,361,OFFICE ZN SAC DIFFUSER INLET NODE,Air,1
 Node,362,T N1 APARTMENT ZN SAC DIFFUSER INLET NODE,Air,1
 Node,363,T N2 APARTMENT ZN SAC DIFFUSER INLET NODE,Air,1
 Node,364,T NE APARTMENT ZN SAC DIFFUSER INLET NODE,Air,1
 Node,365,T NW APARTMENT ZN SAC DIFFUSER INLET NODE,Air,1
 Node,366,T S1 APARTMENT ZN SAC DIFFUSER INLET NODE,Air,1
 Node,367,T S2 APARTMENT ZN SAC DIFFUSER INLET NODE,Air,1
 Node,368,T SE APARTMENT ZN SAC DIFFUSER INLET NODE,Air,1
 Node,369,T SW APARTMENT ZN SAC DIFFUSER INLET NODE,Air,1
 Node,370,NODE 378,Air,2
 Node,371,NODE 380,Air,2
 Node,372,NODE 382,Air,2
 Node,373,NODE 384,Air,2
 Node,374,NODE 386,Air,2
 Node,375,NODE 388,Air,2
 Node,376,NODE 390,Air,2
 Node,377,NODE 392,Air,2
 Node,378,NODE 394,Air,2
 Node,379,NODE 396,Air,2
 Node,380,NODE 398,Air,2
 Node,381,NODE 400,Air,2
 Node,382,NODE 402,Air,2
 Node,383,NODE 404,Air,2
 Node,384,NODE 406,Air,2
 Node,385,NODE 310,Air,1
 Node,386,NODE 408,Air,2
 Node,387,NODE 410,Air,2
 Node,388,NODE 412,Air,2
 Node,389,NODE 226,Air,1
 Node,390,NODE 414,Air,2
 Node,391,NODE 416,Air,2
 Node,392,NODE 238,Air,1
 Node,393,NODE 214,Air,1
 Node,394,NODE 70,Air,0
 Node,395,NODE 82,Air,0
 Node,396,NODE 58,Air,0
 Node,397,NODE 46,Air,0
 Node,398,NODE 94,Air,0
 Node,399,NODE 106,Air,0
 Node,400,NODE 34,Air,0
 Node,401,NODE 166,Air,0
 Node,402,NODE 178,Air,0
 Node,403,NODE 154,Air,0
 Node,404,NODE 130,Air,0
 Node,405,NODE 190,Air,0
 Node,406,NODE 202,Air,0
 Node,407,NODE 142,Air,0
 Node,408,NODE 118,Air,0
 Node,409,NODE 262,Air,0
 Node,410,NODE 274,Air,0
 Node,411,NODE 250,Air,0
 Node,412,NODE 286,Air,0
 Node,413,NODE 298,Air,0
! ===============================================================
! Suspicious nodes have 0 references.  It is normal for some nodes, however.
! Listing nodes with 0 references (culled from previous list):
! <Suspicious Node>,<NodeNumber>,<Node Name>,<Node Fluid Type>,<# Times Node Referenced After Definition>
 Suspicious Node,325,MODEL OUTDOOR AIR NODE,Air,0
 Suspicious Node,394,NODE 70,Air,0
 Suspicious Node,395,NODE 82,Air,0
 Suspicious Node,396,NODE 58,Air,0
 Suspicious Node,397,NODE 46,Air,0
 Suspicious Node,398,NODE 94,Air,0
 Suspicious Node,399,NODE 106,Air,0
 Suspicious Node,400,NODE 34,Air,0
 Suspicious Node,401,NODE 166,Air,0
 Suspicious Node,402,NODE 178,Air,0
 Suspicious Node,403,NODE 154,Air,0
 Suspicious Node,404,NODE 130,Air,0
 Suspicious Node,405,NODE 190,Air,0
 Suspicious Node,406,NODE 202,Air,0
 Suspicious Node,407,NODE 142,Air,0
 Suspicious Node,408,NODE 118,Air,0
 Suspicious Node,409,NODE 262,Air,0
 Suspicious Node,410,NODE 274,Air,0
 Suspicious Node,411,NODE 250,Air,0
 Suspicious Node,412,NODE 286,Air,0
 Suspicious Node,413,NODE 298,Air,0
! ===============================================================
! <#Branch Lists>,<Number of Branch Lists>
 #Branch Lists,28
! <Branch List>,<Branch List Count>,<Branch List Name>,<Loop Name>,<Loop Type>,<Number of Branches>
! <Branch>,<Branch Count>,<Branch Name>,<Loop Name>,<Loop Type>,<Branch Inlet Node Name>,<Branch Outlet Node Name>
 Branch List,1,G N1 APARTMENT ZN SAC SUPPLY BRANCHES,G N1 APARTMENT ZN SAC,Air,1
   Branch,1,G N1 APARTMENT ZN SAC MAIN BRANCH,G N1 APARTMENT ZN SAC,Air,NODE 64,NODE 65
 Branch List,2,G N2 APARTMENT ZN SAC SUPPLY BRANCHES,G N2 APARTMENT ZN SAC,Air,1
   Branch,1,G N2 APARTMENT ZN SAC MAIN BRANCH,G N2 APARTMENT ZN SAC,Air,NODE 76,NODE 77
 Branch List,3,G NE APARTMENT ZN SAC SUPPLY BRANCHES,G NE APARTMENT ZN SAC,Air,1
   Branch,1,G NE APARTMENT ZN SAC MAIN BRANCH,G NE APARTMENT ZN SAC,Air,NODE 52,NODE 53
 Branch List,4,G NW APARTMENT ZN SAC SUPPLY BRANCHES,G NW APARTMENT ZN SAC,Air,1
   Branch,1,G NW APARTMENT ZN SAC MAIN BRANCH,G NW APARTMENT ZN SAC,Air,NODE 40,NODE 41
 Branch List,5,G S1 APARTMENT ZN SAC SUPPLY BRANCHES,G S1 APARTMENT ZN SAC,Air,1
   Branch,1,G S1 APARTMENT ZN SAC MAIN BRANCH,G S1 APARTMENT ZN SAC,Air,NODE 88,NODE 89
 Branch List,6,G S2 APARTMENT ZN SAC SUPPLY BRANCHES,G S2 APARTMENT ZN SAC,Air,1
   Branch,1,G S2 APARTMENT ZN SAC MAIN BRANCH,G S2 APARTMENT ZN SAC,Air,NODE 100,NODE 101
 Branch List,7,G SW APARTMENT ZN SAC SUPPLY BRANCHES,G SW APARTMENT ZN SAC,Air,1
   Branch,1,G SW APARTMENT ZN SAC MAIN BRANCH,G SW APARTMENT ZN SAC,Air,NODE 28,NODE 29
 Branch List,8,M N1 APARTMENT ZN SAC SUPPLY BRANCHES,M N1 APARTMENT ZN SAC,Air,1
   Branch,1,M N1 APARTMENT ZN SAC MAIN BRANCH,M N1 APARTMENT ZN SAC,Air,NODE 160,NODE 161
 Branch List,9,M N2 APARTMENT ZN SAC SUPPLY BRANCHES,M N2 APARTMENT ZN SAC,Air,1
   Branch,1,M N2 APARTMENT ZN SAC MAIN BRANCH,M N2 APARTMENT ZN SAC,Air,NODE 172,NODE 173
 Branch List,10,M NE APARTMENT ZN SAC SUPPLY BRANCHES,M NE APARTMENT ZN SAC,Air,1
   Branch,1,M NE APARTMENT ZN SAC MAIN BRANCH,M NE APARTMENT ZN SAC,Air,NODE 148,NODE 149
 Branch List,11,M NW APARTMENT ZN SAC SUPPLY BRANCHES,M NW APARTMENT ZN SAC,Air,1
   Branch,1,M NW APARTMENT ZN SAC MAIN BRANCH,M NW APARTMENT ZN SAC,Air,NODE 124,NODE 125
 Branch List,12,M S1 APARTMENT ZN SAC SUPPLY BRANCHES,M S1 APARTMENT ZN SAC,Air,1
   Branch,1,M S1 APARTMENT ZN SAC MAIN BRANCH,M S1 APARTMENT ZN SAC,Air,NODE 184,NODE 185
 Branch List,13,M S2 APARTMENT ZN SAC SUPPLY BRANCHES,M S2 APARTMENT ZN SAC,Air,1
   Branch,1,M S2 APARTMENT ZN SAC MAIN BRANCH,M S2 APARTMENT ZN SAC,Air,NODE 196,NODE 197
 Branch List,14,M SE APARTMENT ZN SAC SUPPLY BRANCHES,M SE APARTMENT ZN SAC,Air,1
   Branch,1,M SE APARTMENT ZN SAC MAIN BRANCH,M SE APARTMENT ZN SAC,Air,NODE 136,NODE 137
 Branch List,15,M SW APARTMENT ZN SAC SUPPLY BRANCHES,M SW APARTMENT ZN SAC,Air,1
   Branch,1,M SW APARTMENT ZN SAC MAIN BRANCH,M SW APARTMENT ZN SAC,Air,NODE 112,NODE 113
 Branch List,16,OFFICE ZN SAC SUPPLY BRANCHES,OFFICE ZN SAC,Air,1
   Branch,1,OFFICE ZN SAC MAIN BRANCH,OFFICE ZN SAC,Air,NODE 304,NODE 305
 Branch List,17,T N1 APARTMENT ZN SAC SUPPLY BRANCHES,T N1 APARTMENT ZN SAC,Air,1
   Branch,1,T N1 APARTMENT ZN SAC MAIN BRANCH,T N1 APARTMENT ZN SAC,Air,NODE 256,NODE 257
 Branch List,18,T N2 APARTMENT ZN SAC SUPPLY BRANCHES,T N2 APARTMENT ZN SAC,Air,1
   Branch,1,T N2 APARTMENT ZN SAC MAIN BRANCH,T N2 APARTMENT ZN SAC,Air,NODE 268,NODE 269
 Branch List,19,T NE APARTMENT ZN SAC SUPPLY BRANCHES,T NE APARTMENT ZN SAC,Air,1
   Branch,1,T NE APARTMENT ZN SAC MAIN BRANCH,T NE APARTMENT ZN SAC,Air,NODE 244,NODE 245
 Branch List,20,T NW APARTMENT ZN SAC SUPPLY BRANCHES,T NW APARTMENT ZN SAC,Air,1
   Branch,1,T NW APARTMENT ZN SAC MAIN BRANCH,T NW APARTMENT ZN SAC,Air,NODE 220,NODE 221
 Branch List,21,T S1 APARTMENT ZN SAC SUPPLY BRANCHES,T S1 APARTMENT ZN SAC,Air,1
   Branch,1,T S1 APARTMENT ZN SAC MAIN BRANCH,T S1 APARTMENT ZN SAC,Air,NODE 280,NODE 281
 Branch List,22,T S2 APARTMENT ZN SAC SUPPLY BRANCHES,T S2 APARTMENT ZN SAC,Air,1
   Branch,1,T S2 APARTMENT ZN SAC MAIN BRANCH,T S2 APARTMENT ZN SAC,Air,NODE 292,NODE 293
 Branch List,23,T SE APARTMENT ZN SAC SUPPLY BRANCHES,T SE APARTMENT ZN SAC,Air,1
   Branch,1,T SE APARTMENT ZN SAC MAIN BRANCH,T SE APARTMENT ZN SAC,Air,NODE 232,NODE 233
 Branch List,24,T SW APARTMENT ZN SAC SUPPLY BRANCHES,T SW APARTMENT ZN SAC,Air,1
   Branch,1,T SW APARTMENT ZN SAC MAIN BRANCH,T SW APARTMENT ZN SAC,Air,NODE 208,NODE 209
 Branch List,25,PLANT LOOP 1 SUPPLY BRANCHES,PLANT LOOP 1,Plant Supply,4
   Branch,1,PLANT LOOP 1 SUPPLY INLET BRANCH,PLANT LOOP 1,Plant Supply,NODE 330,NODE 338
   Branch,2,PLANT LOOP 1 SUPPLY BRANCH 1,PLANT LOOP 1,Plant Supply,NODE 332,NODE 340
   Branch,3,PLANT LOOP 1 SUPPLY BRANCH 2,PLANT LOOP 1,Plant Supply,NODE 343,NODE 318
   Branch,4,PLANT LOOP 1 SUPPLY OUTLET BRANCH,PLANT LOOP 1,Plant Supply,NODE 339,NODE 317
 Branch List,26,PLANT LOOP 1 DEMAND BRANCHES,PLANT LOOP 1,Plant Demand,5
   Branch,1,PLANT LOOP 1 DEMAND INLET BRANCH,PLANT LOOP 1,Plant Demand,NODE 333,NODE 342
   Branch,2,PLANT LOOP 1 DEMAND BRANCH 1,PLANT LOOP 1,Plant Demand,NODE 316,NODE 417
   Branch,3,PLANT LOOP 1 DEMAND BRANCH 2,PLANT LOOP 1,Plant Demand,NODE 319,NODE 320
   Branch,4,PLANT LOOP 1 DEMAND BYPASS BRANCH,PLANT LOOP 1,Plant Demand,PLANT LOOP 1 DEMAND BYPASS PIPE INLET NODE,PLANT LOOP 1 DEMAND BYPASS PIPE OUTLET NODE
   Branch,5,PLANT LOOP 1 DEMAND OUTLET BRANCH,PLANT LOOP 1,Plant Demand,NODE 341,NODE 336
 Branch List,27,PLANT LOOP 2 SUPPLY BRANCHES,PLANT LOOP 2,Plant Supply,4
   Branch,1,PLANT LOOP 2 SUPPLY INLET BRANCH,PLANT LOOP 2,Plant Supply,NODE 321,NODE 322
   Branch,2,PLANT LOOP 2 SUPPLY BRANCH 1,PLANT LOOP 2,Plant Supply,NODE 323,NODE 331
   Branch,3,PLANT LOOP 2 SUPPLY BRANCH 2,PLANT LOOP 2,Plant Supply,NODE 344,NODE 345
   Branch,4,PLANT LOOP 2 SUPPLY OUTLET BRANCH,PLANT LOOP 2,Plant Supply,NODE 327,NODE 418
 Branch List,28,PLANT LOOP 2 DEMAND BRANCHES,PLANT LOOP 2,Plant Demand,5
   Branch,1,PLANT LOOP 2 DEMAND INLET BRANCH,PLANT LOOP 2,Plant Demand,NODE 324,NODE 328
   Branch,2,PLANT LOOP 2 DEMAND BRANCH 1,PLANT LOOP 2,Plant Demand,NODE 326,NODE 334
   Branch,3,PLANT LOOP 2 DEMAND BRANCH 2,PLANT LOOP 2,Plant Demand,NODE 335,NODE 337
   Branch,4,PLANT LOOP 2 DEMAND BYPASS BRANCH,PLANT LOOP 2,Plant Demand,PLANT LOOP 2 DEMAND BYPASS PIPE INLET NODE,PLANT LOOP 2 DEMAND BYPASS PIPE OUTLET NODE
   Branch,5,PLANT LOOP 2 DEMAND OUTLET BRANCH,PLANT LOOP 2,Plant Demand,NODE 329,NODE 325
! ===============================================================
! <#Supply Air Paths>,<Number of Supply Air Paths>
 #Supply Air Paths,24
! <Supply Air Path>,<Supply Air Path Count>,<Supply Air Path Name>,<AirLoopHVAC Name>
! <#Components on Supply Air Path>,<Number of Components>
! <Supply Air Path Component>,<Component Count>,<Component Type>,<Component Name>,<AirLoopHVAC Name>
! <#Outlet Nodes on Supply Air Path Component>,<Number of Nodes>
! <Supply Air Path Component Nodes>,<Node Count>,<Component Type>,<Component Name>,<Inlet Node Name>,<Outlet Node Name>,<AirLoopHVAC Name>
 Supply Air Path,1,G N1 APARTMENT ZN SAC NODE 66 SUPPLY PATH,G N1 APARTMENT ZN SAC
   #Components on Supply Air Path,1
   Supply Air Path Component,1,AIRLOOPHVAC:ZONESPLITTER,AIR LOOP HVAC ZONE SPLITTER 4,G N1 APARTMENT ZN SAC
     #Outlet Nodes on Supply Air Path Component,1
     Supply Air Path Component Nodes,1,AIRLOOPHVAC:ZONESPLITTER,AIR LOOP HVAC ZONE SPLITTER 4,NODE 66,G N1 APARTMENT ZN SAC DIFFUSER INLET NODE,G N1 APARTMENT ZN SAC
! <#Nodes on Supply Air Path>,<Number of Nodes>
! <Supply Air Path Node>,<Node Type>,<Node Count>,<Node Name>,<AirLoopHVAC Name>
#Nodes on Supply Air Path,2
   Supply Air Path Node,Inlet Node,1,NODE 66,G N1 APARTMENT ZN SAC
   Supply Air Path Node,Outlet Node,2,G N1 APARTMENT ZN SAC DIFFUSER INLET NODE,G N1 APARTMENT ZN SAC
 Supply Air Path,2,G N2 APARTMENT ZN SAC NODE 78 SUPPLY PATH,G N2 APARTMENT ZN SAC
   #Components on Supply Air Path,1
   Supply Air Path Component,1,AIRLOOPHVAC:ZONESPLITTER,AIR LOOP HVAC ZONE SPLITTER 5,G N2 APARTMENT ZN SAC
     #Outlet Nodes on Supply Air Path Component,1
     Supply Air Path Component Nodes,1,AIRLOOPHVAC:ZONESPLITTER,AIR LOOP HVAC ZONE SPLITTER 5,NODE 78,G N2 APARTMENT ZN SAC DIFFUSER INLET NODE,G N2 APARTMENT ZN SAC
! <#Nodes on Supply Air Path>,<Number of Nodes>
! <Supply Air Path Node>,<Node Type>,<Node Count>,<Node Name>,<AirLoopHVAC Name>
#Nodes on Supply Air Path,2
   Supply Air Path Node,Inlet Node,1,NODE 78,G N2 APARTMENT ZN SAC
   Supply Air Path Node,Outlet Node,2,G N2 APARTMENT ZN SAC DIFFUSER INLET NODE,G N2 APARTMENT ZN SAC
 Supply Air Path,3,G NE APARTMENT ZN SAC NODE 54 SUPPLY PATH,G NE APARTMENT ZN SAC
   #Components on Supply Air Path,1
   Supply Air Path Component,1,AIRLOOPHVAC:ZONESPLITTER,AIR LOOP HVAC ZONE SPLITTER 3,G NE APARTMENT ZN SAC
     #Outlet Nodes on Supply Air Path Component,1
     Supply Air Path Component Nodes,1,AIRLOOPHVAC:ZONESPLITTER,AIR LOOP HVAC ZONE SPLITTER 3,NODE 54,G NE APARTMENT ZN SAC DIFFUSER INLET NODE,G NE APARTMENT ZN SAC
! <#Nodes on Supply Air Path>,<Number of Nodes>
! <Supply Air Path Node>,<Node Type>,<Node Count>,<Node Name>,<AirLoopHVAC Name>
#Nodes on Supply Air Path,2
   Supply Air Path Node,Inlet Node,1,NODE 54,G NE APARTMENT ZN SAC
   Supply Air Path Node,Outlet Node,2,G NE APARTMENT ZN SAC DIFFUSER INLET NODE,G NE APARTMENT ZN SAC
 Supply Air Path,4,G NW APARTMENT ZN SAC NODE 42 SUPPLY PATH,G NW APARTMENT ZN SAC
   #Components on Supply Air Path,1
   Supply Air Path Component,1,AIRLOOPHVAC:ZONESPLITTER,AIR LOOP HVAC ZONE SPLITTER 2,G NW APARTMENT ZN SAC
     #Outlet Nodes on Supply Air Path Component,1
     Supply Air Path Component Nodes,1,AIRLOOPHVAC:ZONESPLITTER,AIR LOOP HVAC ZONE SPLITTER 2,NODE 42,G NW APARTMENT ZN SAC DIFFUSER INLET NODE,G NW APARTMENT ZN SAC
! <#Nodes on Supply Air Path>,<Number of Nodes>
! <Supply Air Path Node>,<Node Type>,<Node Count>,<Node Name>,<AirLoopHVAC Name>
#Nodes on Supply Air Path,2
   Supply Air Path Node,Inlet Node,1,NODE 42,G NW APARTMENT ZN SAC
   Supply Air Path Node,Outlet Node,2,G NW APARTMENT ZN SAC DIFFUSER INLET NODE,G NW APARTMENT ZN SAC
 Supply Air Path,5,G S1 APARTMENT ZN SAC NODE 90 SUPPLY PATH,G S1 APARTMENT ZN SAC
   #Components on Supply Air Path,1
   Supply Air Path Component,1,AIRLOOPHVAC:ZONESPLITTER,AIR LOOP HVAC ZONE SPLITTER 6,G S1 APARTMENT ZN SAC
     #Outlet Nodes on Supply Air Path Component,1
     Supply Air Path Component Nodes,1,AIRLOOPHVAC:ZONESPLITTER,AIR LOOP HVAC ZONE SPLITTER 6,NODE 90,G S1 APARTMENT ZN SAC DIFFUSER INLET NODE,G S1 APARTMENT ZN SAC
! <#Nodes on Supply Air Path>,<Number of Nodes>
! <Supply Air Path Node>,<Node Type>,<Node Count>,<Node Name>,<AirLoopHVAC Name>
#Nodes on Supply Air Path,2
   Supply Air Path Node,Inlet Node,1,NODE 90,G S1 APARTMENT ZN SAC
   Supply Air Path Node,Outlet Node,2,G S1 APARTMENT ZN SAC DIFFUSER INLET NODE,G S1 APARTMENT ZN SAC
 Supply Air Path,6,G S2 APARTMENT ZN SAC NODE 102 SUPPLY PATH,G S2 APARTMENT ZN SAC
   #Components on Supply Air Path,1
   Supply Air Path Component,1,AIRLOOPHVAC:ZONESPLITTER,AIR LOOP HVAC ZONE SPLITTER 7,G S2 APARTMENT ZN SAC
     #Outlet Nodes on Supply Air Path Component,1
     Supply Air Path Component Nodes,1,AIRLOOPHVAC:ZONESPLITTER,AIR LOOP HVAC ZONE SPLITTER 7,NODE 102,G S2 APARTMENT ZN SAC DIFFUSER INLET NODE,G S2 APARTMENT ZN SAC
! <#Nodes on Supply Air Path>,<Number of Nodes>
! <Supply Air Path Node>,<Node Type>,<Node Count>,<Node Name>,<AirLoopHVAC Name>
#Nodes on Supply Air Path,2
   Supply Air Path Node,Inlet Node,1,NODE 102,G S2 APARTMENT ZN SAC
   Supply Air Path Node,Outlet Node,2,G S2 APARTMENT ZN SAC DIFFUSER INLET NODE,G S2 APARTMENT ZN SAC
 Supply Air Path,7,G SW APARTMENT ZN SAC NODE 30 SUPPLY PATH,G SW APARTMENT ZN SAC
   #Components on Supply Air Path,1
   Supply Air Path Component,1,AIRLOOPHVAC:ZONESPLITTER,AIR LOOP HVAC ZONE SPLITTER 1,G SW APARTMENT ZN SAC
     #Outlet Nodes on Supply Air Path Component,1
     Supply Air Path Component Nodes,1,AIRLOOPHVAC:ZONESPLITTER,AIR LOOP HVAC ZONE SPLITTER 1,NODE 30,G SW APARTMENT ZN SAC DIFFUSER INLET NODE,G SW APARTMENT ZN SAC
! <#Nodes on Supply Air Path>,<Number of Nodes>
! <Supply Air Path Node>,<Node Type>,<Node Count>,<Node Name>,<AirLoopHVAC Name>
#Nodes on Supply Air Path,2
   Supply Air Path Node,Inlet Node,1,NODE 30,G SW APARTMENT ZN SAC
   Supply Air Path Node,Outlet Node,2,G SW APARTMENT ZN SAC DIFFUSER INLET NODE,G SW APARTMENT ZN SAC
 Supply Air Path,8,M N1 APARTMENT ZN SAC NODE 162 SUPPLY PATH,M N1 APARTMENT ZN SAC
   #Components on Supply Air Path,1
   Supply Air Path Component,1,AIRLOOPHVAC:ZONESPLITTER,AIR LOOP HVAC ZONE SPLITTER 12,M N1 APARTMENT ZN SAC
     #Outlet Nodes on Supply Air Path Component,1
     Supply Air Path Component Nodes,1,AIRLOOPHVAC:ZONESPLITTER,AIR LOOP HVAC ZONE SPLITTER 12,NODE 162,M N1 APARTMENT ZN SAC DIFFUSER INLET NODE,M N1 APARTMENT ZN SAC
! <#Nodes on Supply Air Path>,<Number of Nodes>
! <Supply Air Path Node>,<Node Type>,<Node Count>,<Node Name>,<AirLoopHVAC Name>
#Nodes on Supply Air Path,2
   Supply Air Path Node,Inlet Node,1,NODE 162,M N1 APARTMENT ZN SAC
   Supply Air Path Node,Outlet Node,2,M N1 APARTMENT ZN SAC DIFFUSER INLET NODE,M N1 APARTMENT ZN SAC
 Supply Air Path,9,M N2 APARTMENT ZN SAC NODE 174 SUPPLY PATH,M N2 APARTMENT ZN SAC
   #Components on Supply Air Path,1
   Supply Air Path Component,1,AIRLOOPHVAC:ZONESPLITTER,AIR LOOP HVAC ZONE SPLITTER 13,M N2 APARTMENT ZN SAC
     #Outlet Nodes on Supply Air Path Component,1
     Supply Air Path Component Nodes,1,AIRLOOPHVAC:ZONESPLITTER,AIR LOOP HVAC ZONE SPLITTER 13,NODE 174,M N2 APARTMENT ZN SAC DIFFUSER INLET NODE,M N2 APARTMENT ZN SAC
! <#Nodes on Supply Air Path>,<Number of Nodes>
! <Supply Air Path Node>,<Node Type>,<Node Count>,<Node Name>,<AirLoopHVAC Name>
#Nodes on Supply Air Path,2
   Supply Air Path Node,Inlet Node,1,NODE 174,M N2 APARTMENT ZN SAC
   Supply Air Path Node,Outlet Node,2,M N2 APARTMENT ZN SAC DIFFUSER INLET NODE,M N2 APARTMENT ZN SAC
 Supply Air Path,10,M NE APARTMENT ZN SAC NODE 150 SUPPLY PATH,M NE APARTMENT ZN SAC
   #Components on Supply Air Path,1
   Supply Air Path Component,1,AIRLOOPHVAC:ZONESPLITTER,AIR LOOP HVAC ZONE SPLITTER 11,M NE APARTMENT ZN SAC
     #Outlet Nodes on Supply Air Path Component,1
     Supply Air Path Component Nodes,1,AIRLOOPHVAC:ZONESPLITTER,AIR LOOP HVAC ZONE SPLITTER 11,NODE 150,M NE APARTMENT ZN SAC DIFFUSER INLET NODE,M NE APARTMENT ZN SAC
! <#Nodes on Supply Air Path>,<Number of Nodes>
! <Supply Air Path Node>,<Node Type>,<Node Count>,<Node Name>,<AirLoopHVAC Name>
#Nodes on Supply Air Path,2
   Supply Air Path Node,Inlet Node,1,NODE 150,M NE APARTMENT ZN SAC
   Supply Air Path Node,Outlet Node,2,M NE APARTMENT ZN SAC DIFFUSER INLET NODE,M NE APARTMENT ZN SAC
 Supply Air Path,11,M NW APARTMENT ZN SAC NODE 126 SUPPLY PATH,M NW APARTMENT ZN SAC
   #Components on Supply Air Path,1
   Supply Air Path Component,1,AIRLOOPHVAC:ZONESPLITTER,AIR LOOP HVAC ZONE SPLITTER 9,M NW APARTMENT ZN SAC
     #Outlet Nodes on Supply Air Path Component,1
     Supply Air Path Component Nodes,1,AIRLOOPHVAC:ZONESPLITTER,AIR LOOP HVAC ZONE SPLITTER 9,NODE 126,M NW APARTMENT ZN SAC DIFFUSER INLET NODE,M NW APARTMENT ZN SAC
! <#Nodes on Supply Air Path>,<Number of Nodes>
! <Supply Air Path Node>,<Node Type>,<Node Count>,<Node Name>,<AirLoopHVAC Name>
#Nodes on Supply Air Path,2
   Supply Air Path Node,Inlet Node,1,NODE 126,M NW APARTMENT ZN SAC
   Supply Air Path Node,Outlet Node,2,M NW APARTMENT ZN SAC DIFFUSER INLET NODE,M NW APARTMENT ZN SAC
 Supply Air Path,12,M S1 APARTMENT ZN SAC NODE 186 SUPPLY PATH,M S1 APARTMENT ZN SAC
   #Components on Supply Air Path,1
   Supply Air Path Component,1,AIRLOOPHVAC:ZONESPLITTER,AIR LOOP HVAC ZONE SPLITTER 14,M S1 APARTMENT ZN SAC
     #Outlet Nodes on Supply Air Path Component,1
     Supply Air Path Component Nodes,1,AIRLOOPHVAC:ZONESPLITTER,AIR LOOP HVAC ZONE SPLITTER 14,NODE 186,M S1 APARTMENT ZN SAC DIFFUSER INLET NODE,M S1 APARTMENT ZN SAC
! <#Nodes on Supply Air Path>,<Number of Nodes>
! <Supply Air Path Node>,<Node Type>,<Node Count>,<Node Name>,<AirLoopHVAC Name>
#Nodes on Supply Air Path,2
   Supply Air Path Node,Inlet Node,1,NODE 186,M S1 APARTMENT ZN SAC
   Supply Air Path Node,Outlet Node,2,M S1 APARTMENT ZN SAC DIFFUSER INLET NODE,M S1 APARTMENT ZN SAC
 Supply Air Path,13,M S2 APARTMENT ZN SAC NODE 198 SUPPLY PATH,M S2 APARTMENT ZN SAC
   #Components on Supply Air Path,1
   Supply Air Path Component,1,AIRLOOPHVAC:ZONESPLITTER,AIR LOOP HVAC ZONE SPLITTER 15,M S2 APARTMENT ZN SAC
     #Outlet Nodes on Supply Air Path Component,1
     Supply Air Path Component Nodes,1,AIRLOOPHVAC:ZONESPLITTER,AIR LOOP HVAC ZONE SPLITTER 15,NODE 198,M S2 APARTMENT ZN SAC DIFFUSER INLET NODE,M S2 APARTMENT ZN SAC
! <#Nodes on Supply Air Path>,<Number of Nodes>
! <Supply Air Path Node>,<Node Type>,<Node Count>,<Node Name>,<AirLoopHVAC Name>
#Nodes on Supply Air Path,2
   Supply Air Path Node,Inlet Node,1,NODE 198,M S2 APARTMENT ZN SAC
   Supply Air Path Node,Outlet Node,2,M S2 APARTMENT ZN SAC DIFFUSER INLET NODE,M S2 APARTMENT ZN SAC
 Supply Air Path,14,M SE APARTMENT ZN SAC NODE 138 SUPPLY PATH,M SE APARTMENT ZN SAC
   #Components on Supply Air Path,1
   Supply Air Path Component,1,AIRLOOPHVAC:ZONESPLITTER,AIR LOOP HVAC ZONE SPLITTER 10,M SE APARTMENT ZN SAC
     #Outlet Nodes on Supply Air Path Component,1
     Supply Air Path Component Nodes,1,AIRLOOPHVAC:ZONESPLITTER,AIR LOOP HVAC ZONE SPLITTER 10,NODE 138,M SE APARTMENT ZN SAC DIFFUSER INLET NODE,M SE APARTMENT ZN SAC
! <#Nodes on Supply Air Path>,<Number of Nodes>
! <Supply Air Path Node>,<Node Type>,<Node Count>,<Node Name>,<AirLoopHVAC Name>
#Nodes on Supply Air Path,2
   Supply Air Path Node,Inlet Node,1,NODE 138,M SE APARTMENT ZN SAC
   Supply Air Path Node,Outlet Node,2,M SE APARTMENT ZN SAC DIFFUSER INLET NODE,M SE APARTMENT ZN SAC
 Supply Air Path,15,M SW APARTMENT ZN SAC NODE 114 SUPPLY PATH,M SW APARTMENT ZN SAC
   #Components on Supply Air Path,1
   Supply Air Path Component,1,AIRLOOPHVAC:ZONESPLITTER,AIR LOOP HVAC ZONE SPLITTER 8,M SW APARTMENT ZN SAC
     #Outlet Nodes on Supply Air Path Component,1
     Supply Air Path Component Nodes,1,AIRLOOPHVAC:ZONESPLITTER,AIR LOOP HVAC ZONE SPLITTER 8,NODE 114,M SW APARTMENT ZN SAC DIFFUSER INLET NODE,M SW APARTMENT ZN SAC
! <#Nodes on Supply Air Path>,<Number of Nodes>
! <Supply Air Path Node>,<Node Type>,<Node Count>,<Node Name>,<AirLoopHVAC Name>
#Nodes on Supply Air Path,2
   Supply Air Path Node,Inlet Node,1,NODE 114,M SW APARTMENT ZN SAC
   Supply Air Path Node,Outlet Node,2,M SW APARTMENT ZN SAC DIFFUSER INLET NODE,M SW APARTMENT ZN SAC
 Supply Air Path,16,OFFICE ZN SAC NODE 306 SUPPLY PATH,OFFICE ZN SAC
   #Components on Supply Air Path,1
   Supply Air Path Component,1,AIRLOOPHVAC:ZONESPLITTER,AIR LOOP HVAC ZONE SPLITTER 24,OFFICE ZN SAC
     #Outlet Nodes on Supply Air Path Component,1
     Supply Air Path Component Nodes,1,AIRLOOPHVAC:ZONESPLITTER,AIR LOOP HVAC ZONE SPLITTER 24,NODE 306,OFFICE ZN SAC DIFFUSER INLET NODE,OFFICE ZN SAC
! <#Nodes on Supply Air Path>,<Number of Nodes>
! <Supply Air Path Node>,<Node Type>,<Node Count>,<Node Name>,<AirLoopHVAC Name>
#Nodes on Supply Air Path,2
   Supply Air Path Node,Inlet Node,1,NODE 306,OFFICE ZN SAC
   Supply Air Path Node,Outlet Node,2,OFFICE ZN SAC DIFFUSER INLET NODE,OFFICE ZN SAC
 Supply Air Path,17,T N1 APARTMENT ZN SAC NODE 258 SUPPLY PATH,T N1 APARTMENT ZN SAC
   #Components on Supply Air Path,1
   Supply Air Path Component,1,AIRLOOPHVAC:ZONESPLITTER,AIR LOOP HVAC ZONE SPLITTER 20,T N1 APARTMENT ZN SAC
     #Outlet Nodes on Supply Air Path Component,1
     Supply Air Path Component Nodes,1,AIRLOOPHVAC:ZONESPLITTER,AIR LOOP HVAC ZONE SPLITTER 20,NODE 258,T N1 APARTMENT ZN SAC DIFFUSER INLET NODE,T N1 APARTMENT ZN SAC
! <#Nodes on Supply Air Path>,<Number of Nodes>
! <Supply Air Path Node>,<Node Type>,<Node Count>,<Node Name>,<AirLoopHVAC Name>
#Nodes on Supply Air Path,2
   Supply Air Path Node,Inlet Node,1,NODE 258,T N1 APARTMENT ZN SAC
   Supply Air Path Node,Outlet Node,2,T N1 APARTMENT ZN SAC DIFFUSER INLET NODE,T N1 APARTMENT ZN SAC
 Supply Air Path,18,T N2 APARTMENT ZN SAC NODE 270 SUPPLY PATH,T N2 APARTMENT ZN SAC
   #Components on Supply Air Path,1
   Supply Air Path Component,1,AIRLOOPHVAC:ZONESPLITTER,AIR LOOP HVAC ZONE SPLITTER 21,T N2 APARTMENT ZN SAC
     #Outlet Nodes on Supply Air Path Component,1
     Supply Air Path Component Nodes,1,AIRLOOPHVAC:ZONESPLITTER,AIR LOOP HVAC ZONE SPLITTER 21,NODE 270,T N2 APARTMENT ZN SAC DIFFUSER INLET NODE,T N2 APARTMENT ZN SAC
! <#Nodes on Supply Air Path>,<Number of Nodes>
! <Supply Air Path Node>,<Node Type>,<Node Count>,<Node Name>,<AirLoopHVAC Name>
#Nodes on Supply Air Path,2
   Supply Air Path Node,Inlet Node,1,NODE 270,T N2 APARTMENT ZN SAC
   Supply Air Path Node,Outlet Node,2,T N2 APARTMENT ZN SAC DIFFUSER INLET NODE,T N2 APARTMENT ZN SAC
 Supply Air Path,19,T NE APARTMENT ZN SAC NODE 246 SUPPLY PATH,T NE APARTMENT ZN SAC
   #Components on Supply Air Path,1
   Supply Air Path Component,1,AIRLOOPHVAC:ZONESPLITTER,AIR LOOP HVAC ZONE SPLITTER 19,T NE APARTMENT ZN SAC
     #Outlet Nodes on Supply Air Path Component,1
     Supply Air Path Component Nodes,1,AIRLOOPHVAC:ZONESPLITTER,AIR LOOP HVAC ZONE SPLITTER 19,NODE 246,T NE APARTMENT ZN SAC DIFFUSER INLET NODE,T NE APARTMENT ZN SAC
! <#Nodes on Supply Air Path>,<Number of Nodes>
! <Supply Air Path Node>,<Node Type>,<Node Count>,<Node Name>,<AirLoopHVAC Name>
#Nodes on Supply Air Path,2
   Supply Air Path Node,Inlet Node,1,NODE 246,T NE APARTMENT ZN SAC
   Supply Air Path Node,Outlet Node,2,T NE APARTMENT ZN SAC DIFFUSER INLET NODE,T NE APARTMENT ZN SAC
 Supply Air Path,20,T NW APARTMENT ZN SAC NODE 222 SUPPLY PATH,T NW APARTMENT ZN SAC
   #Components on Supply Air Path,1
   Supply Air Path Component,1,AIRLOOPHVAC:ZONESPLITTER,AIR LOOP HVAC ZONE SPLITTER 17,T NW APARTMENT ZN SAC
     #Outlet Nodes on Supply Air Path Component,1
     Supply Air Path Component Nodes,1,AIRLOOPHVAC:ZONESPLITTER,AIR LOOP HVAC ZONE SPLITTER 17,NODE 222,T NW APARTMENT ZN SAC DIFFUSER INLET NODE,T NW APARTMENT ZN SAC
! <#Nodes on Supply Air Path>,<Number of Nodes>
! <Supply Air Path Node>,<Node Type>,<Node Count>,<Node Name>,<AirLoopHVAC Name>
#Nodes on Supply Air Path,2
   Supply Air Path Node,Inlet Node,1,NODE 222,T NW APARTMENT ZN SAC
   Supply Air Path Node,Outlet Node,2,T NW APARTMENT ZN SAC DIFFUSER INLET NODE,T NW APARTMENT ZN SAC
 Supply Air Path,21,T S1 APARTMENT ZN SAC NODE 282 SUPPLY PATH,T S1 APARTMENT ZN SAC
   #Components on Supply Air Path,1
   Supply Air Path Component,1,AIRLOOPHVAC:ZONESPLITTER,AIR LOOP HVAC ZONE SPLITTER 22,T S1 APARTMENT ZN SAC
     #Outlet Nodes on Supply Air Path Component,1
     Supply Air Path Component Nodes,1,AIRLOOPHVAC:ZONESPLITTER,AIR LOOP HVAC ZONE SPLITTER 22,NODE 282,T S1 APARTMENT ZN SAC DIFFUSER INLET NODE,T S1 APARTMENT ZN SAC
! <#Nodes on Supply Air Path>,<Number of Nodes>
! <Supply Air Path Node>,<Node Type>,<Node Count>,<Node Name>,<AirLoopHVAC Name>
#Nodes on Supply Air Path,2
   Supply Air Path Node,Inlet Node,1,NODE 282,T S1 APARTMENT ZN SAC
   Supply Air Path Node,Outlet Node,2,T S1 APARTMENT ZN SAC DIFFUSER INLET NODE,T S1 APARTMENT ZN SAC
 Supply Air Path,22,T S2 APARTMENT ZN SAC NODE 294 SUPPLY PATH,T S2 APARTMENT ZN SAC
   #Components on Supply Air Path,1
   Supply Air Path Component,1,AIRLOOPHVAC:ZONESPLITTER,AIR LOOP HVAC ZONE SPLITTER 23,T S2 APARTMENT ZN SAC
     #Outlet Nodes on Supply Air Path Component,1
     Supply Air Path Component Nodes,1,AIRLOOPHVAC:ZONESPLITTER,AIR LOOP HVAC ZONE SPLITTER 23,NODE 294,T S2 APARTMENT ZN SAC DIFFUSER INLET NODE,T S2 APARTMENT ZN SAC
! <#Nodes on Supply Air Path>,<Number of Nodes>
! <Supply Air Path Node>,<Node Type>,<Node Count>,<Node Name>,<AirLoopHVAC Name>
#Nodes on Supply Air Path,2
   Supply Air Path Node,Inlet Node,1,NODE 294,T S2 APARTMENT ZN SAC
   Supply Air Path Node,Outlet Node,2,T S2 APARTMENT ZN SAC DIFFUSER INLET NODE,T S2 APARTMENT ZN SAC
 Supply Air Path,23,T SE APARTMENT ZN SAC NODE 234 SUPPLY PATH,T SE APARTMENT ZN SAC
   #Components on Supply Air Path,1
   Supply Air Path Component,1,AIRLOOPHVAC:ZONESPLITTER,AIR LOOP HVAC ZONE SPLITTER 18,T SE APARTMENT ZN SAC
     #Outlet Nodes on Supply Air Path Component,1
     Supply Air Path Component Nodes,1,AIRLOOPHVAC:ZONESPLITTER,AIR LOOP HVAC ZONE SPLITTER 18,NODE 234,T SE APARTMENT ZN SAC DIFFUSER INLET NODE,T SE APARTMENT ZN SAC
! <#Nodes on Supply Air Path>,<Number of Nodes>
! <Supply Air Path Node>,<Node Type>,<Node Count>,<Node Name>,<AirLoopHVAC Name>
#Nodes on Supply Air Path,2
   Supply Air Path Node,Inlet Node,1,NODE 234,T SE APARTMENT ZN SAC
   Supply Air Path Node,Outlet Node,2,T SE APARTMENT ZN SAC DIFFUSER INLET NODE,T SE APARTMENT ZN SAC
 Supply Air Path,24,T SW APARTMENT ZN SAC NODE 210 SUPPLY PATH,T SW APARTMENT ZN SAC
   #Components on Supply Air Path,1
   Supply Air Path Component,1,AIRLOOPHVAC:ZONESPLITTER,AIR LOOP HVAC ZONE SPLITTER 16,T SW APARTMENT ZN SAC
     #Outlet Nodes on Supply Air Path Component,1
     Supply Air Path Component Nodes,1,AIRLOOPHVAC:ZONESPLITTER,AIR LOOP HVAC ZONE SPLITTER 16,NODE 210,T SW APARTMENT ZN SAC DIFFUSER INLET NODE,T SW APARTMENT ZN SAC
! <#Nodes on Supply Air Path>,<Number of Nodes>
! <Supply Air Path Node>,<Node Type>,<Node Count>,<Node Name>,<AirLoopHVAC Name>
#Nodes on Supply Air Path,2
   Supply Air Path Node,Inlet Node,1,NODE 210,T SW APARTMENT ZN SAC
   Supply Air Path Node,Outlet Node,2,T SW APARTMENT ZN SAC DIFFUSER INLET NODE,T SW APARTMENT ZN SAC
! ===============================================================
! <#Return Air Paths>,<Number of Return Air Paths>
 #Return Air Paths,24
! <Return Air Path>,<Return Air Path Count>,<Return Air Path Name>,<AirLoopHVAC Name>
! <#Components on Return Air Path>,<Number of Components>
! <Return Air Path Component>,<Component Count>,<Component Type>,<Component Name>,<AirLoopHVAC Name>
! <#Inlet Nodes on Return Air Path Component>,<Number of Nodes>
! <Return Air Path Component Nodes>,<Node Count>,<Component Type>,<Component Name>,<Inlet Node Name>,<Outlet Node Name>,<AirLoopHVAC Name>
 Return Air Path,1,G N1 APARTMENT ZN SAC RETURN PATH,G N1 APARTMENT ZN SAC
   #Components on Return Air Path,1
   Return Air Path Component,1,AIRLOOPHVAC:ZONEMIXER,AIR LOOP HVAC ZONE MIXER 4,G N1 APARTMENT ZN SAC
     #Inlet Nodes on Return Air Path Component,1
     Return Air Path Component Nodes,1,AIRLOOPHVAC:ZONEMIXER,AIR LOOP HVAC ZONE MIXER 4,NODE 75,NODE 67,G N1 APARTMENT ZN SAC
! <#Nodes on Return Air Path>,<Number of Nodes>
! <Return Air Path Node>,<Node Type>,<Node Count>,<Node Name>,<AirLoopHVAC Name>
   #Nodes on Return Air Path,2
   Return Air Path Node,Outlet Node,1,NODE 67,G N1 APARTMENT ZN SAC
   Return Air Path Node,Inlet Node,2,NODE 75,G N1 APARTMENT ZN SAC
 Return Air Path,2,G N2 APARTMENT ZN SAC RETURN PATH,G N2 APARTMENT ZN SAC
   #Components on Return Air Path,1
   Return Air Path Component,1,AIRLOOPHVAC:ZONEMIXER,AIR LOOP HVAC ZONE MIXER 5,G N2 APARTMENT ZN SAC
     #Inlet Nodes on Return Air Path Component,1
     Return Air Path Component Nodes,1,AIRLOOPHVAC:ZONEMIXER,AIR LOOP HVAC ZONE MIXER 5,NODE 87,NODE 79,G N2 APARTMENT ZN SAC
! <#Nodes on Return Air Path>,<Number of Nodes>
! <Return Air Path Node>,<Node Type>,<Node Count>,<Node Name>,<AirLoopHVAC Name>
   #Nodes on Return Air Path,2
   Return Air Path Node,Outlet Node,1,NODE 79,G N2 APARTMENT ZN SAC
   Return Air Path Node,Inlet Node,2,NODE 87,G N2 APARTMENT ZN SAC
 Return Air Path,3,G NE APARTMENT ZN SAC RETURN PATH,G NE APARTMENT ZN SAC
   #Components on Return Air Path,1
   Return Air Path Component,1,AIRLOOPHVAC:ZONEMIXER,AIR LOOP HVAC ZONE MIXER 3,G NE APARTMENT ZN SAC
     #Inlet Nodes on Return Air Path Component,1
     Return Air Path Component Nodes,1,AIRLOOPHVAC:ZONEMIXER,AIR LOOP HVAC ZONE MIXER 3,NODE 63,NODE 55,G NE APARTMENT ZN SAC
! <#Nodes on Return Air Path>,<Number of Nodes>
! <Return Air Path Node>,<Node Type>,<Node Count>,<Node Name>,<AirLoopHVAC Name>
   #Nodes on Return Air Path,2
   Return Air Path Node,Outlet Node,1,NODE 55,G NE APARTMENT ZN SAC
   Return Air Path Node,Inlet Node,2,NODE 63,G NE APARTMENT ZN SAC
 Return Air Path,4,G NW APARTMENT ZN SAC RETURN PATH,G NW APARTMENT ZN SAC
   #Components on Return Air Path,1
   Return Air Path Component,1,AIRLOOPHVAC:ZONEMIXER,AIR LOOP HVAC ZONE MIXER 2,G NW APARTMENT ZN SAC
     #Inlet Nodes on Return Air Path Component,1
     Return Air Path Component Nodes,1,AIRLOOPHVAC:ZONEMIXER,AIR LOOP HVAC ZONE MIXER 2,NODE 51,NODE 43,G NW APARTMENT ZN SAC
! <#Nodes on Return Air Path>,<Number of Nodes>
! <Return Air Path Node>,<Node Type>,<Node Count>,<Node Name>,<AirLoopHVAC Name>
   #Nodes on Return Air Path,2
   Return Air Path Node,Outlet Node,1,NODE 43,G NW APARTMENT ZN SAC
   Return Air Path Node,Inlet Node,2,NODE 51,G NW APARTMENT ZN SAC
 Return Air Path,5,G S1 APARTMENT ZN SAC RETURN PATH,G S1 APARTMENT ZN SAC
   #Components on Return Air Path,1
   Return Air Path Component,1,AIRLOOPHVAC:ZONEMIXER,AIR LOOP HVAC ZONE MIXER 6,G S1 APARTMENT ZN SAC
     #Inlet Nodes on Return Air Path Component,1
     Return Air Path Component Nodes,1,AIRLOOPHVAC:ZONEMIXER,AIR LOOP HVAC ZONE MIXER 6,NODE 99,NODE 91,G S1 APARTMENT ZN SAC
! <#Nodes on Return Air Path>,<Number of Nodes>
! <Return Air Path Node>,<Node Type>,<Node Count>,<Node Name>,<AirLoopHVAC Name>
   #Nodes on Return Air Path,2
   Return Air Path Node,Outlet Node,1,NODE 91,G S1 APARTMENT ZN SAC
   Return Air Path Node,Inlet Node,2,NODE 99,G S1 APARTMENT ZN SAC
 Return Air Path,6,G S2 APARTMENT ZN SAC RETURN PATH,G S2 APARTMENT ZN SAC
   #Components on Return Air Path,1
   Return Air Path Component,1,AIRLOOPHVAC:ZONEMIXER,AIR LOOP HVAC ZONE MIXER 7,G S2 APARTMENT ZN SAC
     #Inlet Nodes on Return Air Path Component,1
     Return Air Path Component Nodes,1,AIRLOOPHVAC:ZONEMIXER,AIR LOOP HVAC ZONE MIXER 7,NODE 111,NODE 103,G S2 APARTMENT ZN SAC
! <#Nodes on Return Air Path>,<Number of Nodes>
! <Return Air Path Node>,<Node Type>,<Node Count>,<Node Name>,<AirLoopHVAC Name>
   #Nodes on Return Air Path,2
   Return Air Path Node,Outlet Node,1,NODE 103,G S2 APARTMENT ZN SAC
   Return Air Path Node,Inlet Node,2,NODE 111,G S2 APARTMENT ZN SAC
 Return Air Path,7,G SW APARTMENT ZN SAC RETURN PATH,G SW APARTMENT ZN SAC
   #Components on Return Air Path,1
   Return Air Path Component,1,AIRLOOPHVAC:ZONEMIXER,AIR LOOP HVAC ZONE MIXER 1,G SW APARTMENT ZN SAC
     #Inlet Nodes on Return Air Path Component,1
     Return Air Path Component Nodes,1,AIRLOOPHVAC:ZONEMIXER,AIR LOOP HVAC ZONE MIXER 1,NODE 39,NODE 31,G SW APARTMENT ZN SAC
! <#Nodes on Return Air Path>,<Number of Nodes>
! <Return Air Path Node>,<Node Type>,<Node Count>,<Node Name>,<AirLoopHVAC Name>
   #Nodes on Return Air Path,2
   Return Air Path Node,Outlet Node,1,NODE 31,G SW APARTMENT ZN SAC
   Return Air Path Node,Inlet Node,2,NODE 39,G SW APARTMENT ZN SAC
 Return Air Path,8,M N1 APARTMENT ZN SAC RETURN PATH,M N1 APARTMENT ZN SAC
   #Components on Return Air Path,1
   Return Air Path Component,1,AIRLOOPHVAC:ZONEMIXER,AIR LOOP HVAC ZONE MIXER 12,M N1 APARTMENT ZN SAC
     #Inlet Nodes on Return Air Path Component,1
     Return Air Path Component Nodes,1,AIRLOOPHVAC:ZONEMIXER,AIR LOOP HVAC ZONE MIXER 12,NODE 171,NODE 163,M N1 APARTMENT ZN SAC
! <#Nodes on Return Air Path>,<Number of Nodes>
! <Return Air Path Node>,<Node Type>,<Node Count>,<Node Name>,<AirLoopHVAC Name>
   #Nodes on Return Air Path,2
   Return Air Path Node,Outlet Node,1,NODE 163,M N1 APARTMENT ZN SAC
   Return Air Path Node,Inlet Node,2,NODE 171,M N1 APARTMENT ZN SAC
 Return Air Path,9,M N2 APARTMENT ZN SAC RETURN PATH,M N2 APARTMENT ZN SAC
   #Components on Return Air Path,1
   Return Air Path Component,1,AIRLOOPHVAC:ZONEMIXER,AIR LOOP HVAC ZONE MIXER 13,M N2 APARTMENT ZN SAC
     #Inlet Nodes on Return Air Path Component,1
     Return Air Path Component Nodes,1,AIRLOOPHVAC:ZONEMIXER,AIR LOOP HVAC ZONE MIXER 13,NODE 183,NODE 175,M N2 APARTMENT ZN SAC
! <#Nodes on Return Air Path>,<Number of Nodes>
! <Return Air Path Node>,<Node Type>,<Node Count>,<Node Name>,<AirLoopHVAC Name>
   #Nodes on Return Air Path,2
   Return Air Path Node,Outlet Node,1,NODE 175,M N2 APARTMENT ZN SAC
   Return Air Path Node,Inlet Node,2,NODE 183,M N2 APARTMENT ZN SAC
 Return Air Path,10,M NE APARTMENT ZN SAC RETURN PATH,M NE APARTMENT ZN SAC
   #Components on Return Air Path,1
   Return Air Path Component,1,AIRLOOPHVAC:ZONEMIXER,AIR LOOP HVAC ZONE MIXER 11,M NE APARTMENT ZN SAC
     #Inlet Nodes on Return Air Path Component,1
     Return Air Path Component Nodes,1,AIRLOOPHVAC:ZONEMIXER,AIR LOOP HVAC ZONE MIXER 11,NODE 159,NODE 151,M NE APARTMENT ZN SAC
! <#Nodes on Return Air Path>,<Number of Nodes>
! <Return Air Path Node>,<Node Type>,<Node Count>,<Node Name>,<AirLoopHVAC Name>
   #Nodes on Return Air Path,2
   Return Air Path Node,Outlet Node,1,NODE 151,M NE APARTMENT ZN SAC
   Return Air Path Node,Inlet Node,2,NODE 159,M NE APARTMENT ZN SAC
 Return Air Path,11,M NW APARTMENT ZN SAC RETURN PATH,M NW APARTMENT ZN SAC
   #Components on Return Air Path,1
   Return Air Path Component,1,AIRLOOPHVAC:ZONEMIXER,AIR LOOP HVAC ZONE MIXER 9,M NW APARTMENT ZN SAC
     #Inlet Nodes on Return Air Path Component,1
     Return Air Path Component Nodes,1,AIRLOOPHVAC:ZONEMIXER,AIR LOOP HVAC ZONE MIXER 9,NODE 135,NODE 127,M NW APARTMENT ZN SAC
! <#Nodes on Return Air Path>,<Number of Nodes>
! <Return Air Path Node>,<Node Type>,<Node Count>,<Node Name>,<AirLoopHVAC Name>
   #Nodes on Return Air Path,2
   Return Air Path Node,Outlet Node,1,NODE 127,M NW APARTMENT ZN SAC
   Return Air Path Node,Inlet Node,2,NODE 135,M NW APARTMENT ZN SAC
 Return Air Path,12,M S1 APARTMENT ZN SAC RETURN PATH,M S1 APARTMENT ZN SAC
   #Components on Return Air Path,1
   Return Air Path Component,1,AIRLOOPHVAC:ZONEMIXER,AIR LOOP HVAC ZONE MIXER 14,M S1 APARTMENT ZN SAC
     #Inlet Nodes on Return Air Path Component,1
     Return Air Path Component Nodes,1,AIRLOOPHVAC:ZONEMIXER,AIR LOOP HVAC ZONE MIXER 14,NODE 195,NODE 187,M S1 APARTMENT ZN SAC
! <#Nodes on Return Air Path>,<Number of Nodes>
! <Return Air Path Node>,<Node Type>,<Node Count>,<Node Name>,<AirLoopHVAC Name>
   #Nodes on Return Air Path,2
   Return Air Path Node,Outlet Node,1,NODE 187,M S1 APARTMENT ZN SAC
   Return Air Path Node,Inlet Node,2,NODE 195,M S1 APARTMENT ZN SAC
 Return Air Path,13,M S2 APARTMENT ZN SAC RETURN PATH,M S2 APARTMENT ZN SAC
   #Components on Return Air Path,1
   Return Air Path Component,1,AIRLOOPHVAC:ZONEMIXER,AIR LOOP HVAC ZONE MIXER 15,M S2 APARTMENT ZN SAC
     #Inlet Nodes on Return Air Path Component,1
     Return Air Path Component Nodes,1,AIRLOOPHVAC:ZONEMIXER,AIR LOOP HVAC ZONE MIXER 15,NODE 207,NODE 199,M S2 APARTMENT ZN SAC
! <#Nodes on Return Air Path>,<Number of Nodes>
! <Return Air Path Node>,<Node Type>,<Node Count>,<Node Name>,<AirLoopHVAC Name>
   #Nodes on Return Air Path,2
   Return Air Path Node,Outlet Node,1,NODE 199,M S2 APARTMENT ZN SAC
   Return Air Path Node,Inlet Node,2,NODE 207,M S2 APARTMENT ZN SAC
 Return Air Path,14,M SE APARTMENT ZN SAC RETURN PATH,M SE APARTMENT ZN SAC
   #Components on Return Air Path,1
   Return Air Path Component,1,AIRLOOPHVAC:ZONEMIXER,AIR LOOP HVAC ZONE MIXER 10,M SE APARTMENT ZN SAC
     #Inlet Nodes on Return Air Path Component,1
     Return Air Path Component Nodes,1,AIRLOOPHVAC:ZONEMIXER,AIR LOOP HVAC ZONE MIXER 10,NODE 147,NODE 139,M SE APARTMENT ZN SAC
! <#Nodes on Return Air Path>,<Number of Nodes>
! <Return Air Path Node>,<Node Type>,<Node Count>,<Node Name>,<AirLoopHVAC Name>
   #Nodes on Return Air Path,2
   Return Air Path Node,Outlet Node,1,NODE 139,M SE APARTMENT ZN SAC
   Return Air Path Node,Inlet Node,2,NODE 147,M SE APARTMENT ZN SAC
 Return Air Path,15,M SW APARTMENT ZN SAC RETURN PATH,M SW APARTMENT ZN SAC
   #Components on Return Air Path,1
   Return Air Path Component,1,AIRLOOPHVAC:ZONEMIXER,AIR LOOP HVAC ZONE MIXER 8,M SW APARTMENT ZN SAC
     #Inlet Nodes on Return Air Path Component,1
     Return Air Path Component Nodes,1,AIRLOOPHVAC:ZONEMIXER,AIR LOOP HVAC ZONE MIXER 8,NODE 123,NODE 115,M SW APARTMENT ZN SAC
! <#Nodes on Return Air Path>,<Number of Nodes>
! <Return Air Path Node>,<Node Type>,<Node Count>,<Node Name>,<AirLoopHVAC Name>
   #Nodes on Return Air Path,2
   Return Air Path Node,Outlet Node,1,NODE 115,M SW APARTMENT ZN SAC
   Return Air Path Node,Inlet Node,2,NODE 123,M SW APARTMENT ZN SAC
 Return Air Path,16,OFFICE ZN SAC RETURN PATH,OFFICE ZN SAC
   #Components on Return Air Path,1
   Return Air Path Component,1,AIRLOOPHVAC:ZONEMIXER,AIR LOOP HVAC ZONE MIXER 24,OFFICE ZN SAC
     #Inlet Nodes on Return Air Path Component,1
     Return Air Path Component Nodes,1,AIRLOOPHVAC:ZONEMIXER,AIR LOOP HVAC ZONE MIXER 24,NODE 315,NODE 307,OFFICE ZN SAC
! <#Nodes on Return Air Path>,<Number of Nodes>
! <Return Air Path Node>,<Node Type>,<Node Count>,<Node Name>,<AirLoopHVAC Name>
   #Nodes on Return Air Path,2
   Return Air Path Node,Outlet Node,1,NODE 307,OFFICE ZN SAC
   Return Air Path Node,Inlet Node,2,NODE 315,OFFICE ZN SAC
 Return Air Path,17,T N1 APARTMENT ZN SAC RETURN PATH,T N1 APARTMENT ZN SAC
   #Components on Return Air Path,1
   Return Air Path Component,1,AIRLOOPHVAC:ZONEMIXER,AIR LOOP HVAC ZONE MIXER 20,T N1 APARTMENT ZN SAC
     #Inlet Nodes on Return Air Path Component,1
     Return Air Path Component Nodes,1,AIRLOOPHVAC:ZONEMIXER,AIR LOOP HVAC ZONE MIXER 20,NODE 267,NODE 259,T N1 APARTMENT ZN SAC
! <#Nodes on Return Air Path>,<Number of Nodes>
! <Return Air Path Node>,<Node Type>,<Node Count>,<Node Name>,<AirLoopHVAC Name>
   #Nodes on Return Air Path,2
   Return Air Path Node,Outlet Node,1,NODE 259,T N1 APARTMENT ZN SAC
   Return Air Path Node,Inlet Node,2,NODE 267,T N1 APARTMENT ZN SAC
 Return Air Path,18,T N2 APARTMENT ZN SAC RETURN PATH,T N2 APARTMENT ZN SAC
   #Components on Return Air Path,1
   Return Air Path Component,1,AIRLOOPHVAC:ZONEMIXER,AIR LOOP HVAC ZONE MIXER 21,T N2 APARTMENT ZN SAC
     #Inlet Nodes on Return Air Path Component,1
     Return Air Path Component Nodes,1,AIRLOOPHVAC:ZONEMIXER,AIR LOOP HVAC ZONE MIXER 21,NODE 279,NODE 271,T N2 APARTMENT ZN SAC
! <#Nodes on Return Air Path>,<Number of Nodes>
! <Return Air Path Node>,<Node Type>,<Node Count>,<Node Name>,<AirLoopHVAC Name>
   #Nodes on Return Air Path,2
   Return Air Path Node,Outlet Node,1,NODE 271,T N2 APARTMENT ZN SAC
   Return Air Path Node,Inlet Node,2,NODE 279,T N2 APARTMENT ZN SAC
 Return Air Path,19,T NE APARTMENT ZN SAC RETURN PATH,T NE APARTMENT ZN SAC
   #Components on Return Air Path,1
   Return Air Path Component,1,AIRLOOPHVAC:ZONEMIXER,AIR LOOP HVAC ZONE MIXER 19,T NE APARTMENT ZN SAC
     #Inlet Nodes on Return Air Path Component,1
     Return Air Path Component Nodes,1,AIRLOOPHVAC:ZONEMIXER,AIR LOOP HVAC ZONE MIXER 19,NODE 255,NODE 247,T NE APARTMENT ZN SAC
! <#Nodes on Return Air Path>,<Number of Nodes>
! <Return Air Path Node>,<Node Type>,<Node Count>,<Node Name>,<AirLoopHVAC Name>
   #Nodes on Return Air Path,2
   Return Air Path Node,Outlet Node,1,NODE 247,T NE APARTMENT ZN SAC
   Return Air Path Node,Inlet Node,2,NODE 255,T NE APARTMENT ZN SAC
 Return Air Path,20,T NW APARTMENT ZN SAC RETURN PATH,T NW APARTMENT ZN SAC
   #Components on Return Air Path,1
   Return Air Path Component,1,AIRLOOPHVAC:ZONEMIXER,AIR LOOP HVAC ZONE MIXER 17,T NW APARTMENT ZN SAC
     #Inlet Nodes on Return Air Path Component,1
     Return Air Path Component Nodes,1,AIRLOOPHVAC:ZONEMIXER,AIR LOOP HVAC ZONE MIXER 17,NODE 231,NODE 223,T NW APARTMENT ZN SAC
! <#Nodes on Return Air Path>,<Number of Nodes>
! <Return Air Path Node>,<Node Type>,<Node Count>,<Node Name>,<AirLoopHVAC Name>
   #Nodes on Return Air Path,2
   Return Air Path Node,Outlet Node,1,NODE 223,T NW APARTMENT ZN SAC
   Return Air Path Node,Inlet Node,2,NODE 231,T NW APARTMENT ZN SAC
 Return Air Path,21,T S1 APARTMENT ZN SAC RETURN PATH,T S1 APARTMENT ZN SAC
   #Components on Return Air Path,1
   Return Air Path Component,1,AIRLOOPHVAC:ZONEMIXER,AIR LOOP HVAC ZONE MIXER 22,T S1 APARTMENT ZN SAC
     #Inlet Nodes on Return Air Path Component,1
     Return Air Path Component Nodes,1,AIRLOOPHVAC:ZONEMIXER,AIR LOOP HVAC ZONE MIXER 22,NODE 291,NODE 283,T S1 APARTMENT ZN SAC
! <#Nodes on Return Air Path>,<Number of Nodes>
! <Return Air Path Node>,<Node Type>,<Node Count>,<Node Name>,<AirLoopHVAC Name>
   #Nodes on Return Air Path,2
   Return Air Path Node,Outlet Node,1,NODE 283,T S1 APARTMENT ZN SAC
   Return Air Path Node,Inlet Node,2,NODE 291,T S1 APARTMENT ZN SAC
 Return Air Path,22,T S2 APARTMENT ZN SAC RETURN PATH,T S2 APARTMENT ZN SAC
   #Components on Return Air Path,1
   Return Air Path Component,1,AIRLOOPHVAC:ZONEMIXER,AIR LOOP HVAC ZONE MIXER 23,T S2 APARTMENT ZN SAC
     #Inlet Nodes on Return Air Path Component,1
     Return Air Path Component Nodes,1,AIRLOOPHVAC:ZONEMIXER,AIR LOOP HVAC ZONE MIXER 23,NODE 303,NODE 295,T S2 APARTMENT ZN SAC
! <#Nodes on Return Air Path>,<Number of Nodes>
! <Return Air Path Node>,<Node Type>,<Node Count>,<Node Name>,<AirLoopHVAC Name>
   #Nodes on Return Air Path,2
   Return Air Path Node,Outlet Node,1,NODE 295,T S2 APARTMENT ZN SAC
   Return Air Path Node,Inlet Node,2,NODE 303,T S2 APARTMENT ZN SAC
 Return Air Path,23,T SE APARTMENT ZN SAC RETURN PATH,T SE APARTMENT ZN SAC
   #Components on Return Air Path,1
   Return Air Path Component,1,AIRLOOPHVAC:ZONEMIXER,AIR LOOP HVAC ZONE MIXER 18,T SE APARTMENT ZN SAC
     #Inlet Nodes on Return Air Path Component,1
     Return Air Path Component Nodes,1,AIRLOOPHVAC:ZONEMIXER,AIR LOOP HVAC ZONE MIXER 18,NODE 243,NODE 235,T SE APARTMENT ZN SAC
! <#Nodes on Return Air Path>,<Number of Nodes>
! <Return Air Path Node>,<Node Type>,<Node Count>,<Node Name>,<AirLoopHVAC Name>
   #Nodes on Return Air Path,2
   Return Air Path Node,Outlet Node,1,NODE 235,T SE APARTMENT ZN SAC
   Return Air Path Node,Inlet Node,2,NODE 243,T SE APARTMENT ZN SAC
 Return Air Path,24,T SW APARTMENT ZN SAC RETURN PATH,T SW APARTMENT ZN SAC
   #Components on Return Air Path,1
   Return Air Path Component,1,AIRLOOPHVAC:ZONEMIXER,AIR LOOP HVAC ZONE MIXER 16,T SW APARTMENT ZN SAC
     #Inlet Nodes on Return Air Path Component,1
     Return Air Path Component Nodes,1,AIRLOOPHVAC:ZONEMIXER,AIR LOOP HVAC ZONE MIXER 16,NODE 219,NODE 211,T SW APARTMENT ZN SAC
! <#Nodes on Return Air Path>,<Number of Nodes>
! <Return Air Path Node>,<Node Type>,<Node Count>,<Node Name>,<AirLoopHVAC Name>
   #Nodes on Return Air Path,2
   Return Air Path Node,Outlet Node,1,NODE 211,T SW APARTMENT ZN SAC
   Return Air Path Node,Inlet Node,2,NODE 219,T SW APARTMENT ZN SAC
! ===============================================================
! #Outdoor Air Nodes,<Number of Outdoor Air Nodes>
 #Outdoor Air Nodes,25
! <Outdoor Air Node>,<NodeNumber>,<Node Name>
 Outdoor Air Node,301,NODE 69
 Outdoor Air Node,302,NODE 81
 Outdoor Air Node,303,NODE 57
 Outdoor Air Node,304,NODE 45
 Outdoor Air Node,305,NODE 93
 Outdoor Air Node,306,NODE 105
 Outdoor Air Node,307,NODE 33
 Outdoor Air Node,308,NODE 165
 Outdoor Air Node,309,NODE 177
 Outdoor Air Node,310,NODE 153
 Outdoor Air Node,311,NODE 129
 Outdoor Air Node,312,NODE 189
 Outdoor Air Node,313,NODE 201
 Outdoor Air Node,314,NODE 141
 Outdoor Air Node,315,NODE 117
 Outdoor Air Node,316,NODE 309
 Outdoor Air Node,317,NODE 261
 Outdoor Air Node,318,NODE 273
 Outdoor Air Node,319,NODE 249
 Outdoor Air Node,320,NODE 225
 Outdoor Air Node,321,NODE 285
 Outdoor Air Node,322,NODE 297
 Outdoor Air Node,323,NODE 237
 Outdoor Air Node,324,NODE 213
 Outdoor Air Node,325,MODEL OUTDOOR AIR NODE
! ===============================================================
! <#Component Sets>,<Number of Component Sets>
 #Component Sets,230
! <Component Set>,<Component Set Count>,<Parent Object Type>,<Parent Object Name>,<Component Type>,<Component Name>,<Inlet Node ID>,<Outlet Node ID>,<Description>
 Component Set,1,BRANCH,G N1 APARTMENT ZN SAC MAIN BRANCH,AIRLOOPHVAC:OUTDOORAIRSYSTEM,G N1 APARTMENT ZN SAC OA SYS,NODE 64,NODE 74,Air Nodes
 Component Set,2,BRANCH,G N1 APARTMENT ZN SAC MAIN BRANCH,COILSYSTEM:COOLING:DX,G N1 APARTMENT ZN SAC 1SPD DX AC CLG COIL 8KBTU/HR 14.0SEER COILSYSTEM,NODE 74,NODE 73,Air Nodes
 Component Set,3,BRANCH,G N1 APARTMENT ZN SAC MAIN BRANCH,COIL:HEATING:FUEL,G N1 APARTMENT ZN SAC GAS HTG COIL,NODE 73,NODE 72,Air Nodes
 Component Set,4,BRANCH,G N1 APARTMENT ZN SAC MAIN BRANCH,COIL:HEATING:FUEL,G N1 APARTMENT ZN PSZ-AC GAS BACKUP HTG COIL,NODE 72,NODE 71,Air Nodes
 Component Set,5,BRANCH,G N1 APARTMENT ZN SAC MAIN BRANCH,FAN:CONSTANTVOLUME,G N1 APARTMENT ZN SAC FAN,NODE 71,NODE 65,Air Nodes
 Component Set,6,BRANCH,G N2 APARTMENT ZN SAC MAIN BRANCH,AIRLOOPHVAC:OUTDOORAIRSYSTEM,G N2 APARTMENT ZN SAC OA SYS,NODE 76,NODE 86,Air Nodes
 Component Set,7,BRANCH,G N2 APARTMENT ZN SAC MAIN BRANCH,COILSYSTEM:COOLING:DX,G N2 APARTMENT ZN SAC 1SPD DX AC CLG COIL 8KBTU/HR 14.0SEER COILSYSTEM,NODE 86,NODE 85,Air Nodes
 Component Set,8,BRANCH,G N2 APARTMENT ZN SAC MAIN BRANCH,COIL:HEATING:FUEL,G N2 APARTMENT ZN SAC GAS HTG COIL,NODE 85,NODE 84,Air Nodes
 Component Set,9,BRANCH,G N2 APARTMENT ZN SAC MAIN BRANCH,COIL:HEATING:FUEL,G N2 APARTMENT ZN PSZ-AC GAS BACKUP HTG COIL,NODE 84,NODE 83,Air Nodes
 Component Set,10,BRANCH,G N2 APARTMENT ZN SAC MAIN BRANCH,FAN:CONSTANTVOLUME,G N2 APARTMENT ZN SAC FAN,NODE 83,NODE 77,Air Nodes
 Component Set,11,BRANCH,G NE APARTMENT ZN SAC MAIN BRANCH,AIRLOOPHVAC:OUTDOORAIRSYSTEM,G NE APARTMENT ZN SAC OA SYS,NODE 52,NODE 62,Air Nodes
 Component Set,12,BRANCH,G NE APARTMENT ZN SAC MAIN BRANCH,COILSYSTEM:COOLING:DX,G NE APARTMENT ZN SAC 1SPD DX AC CLG COIL 10KBTU/HR 14.0SEER COILSYSTEM,NODE 62,NODE 61,Air Nodes
 Component Set,13,BRANCH,G NE APARTMENT ZN SAC MAIN BRANCH,COIL:HEATING:FUEL,G NE APARTMENT ZN SAC GAS HTG COIL,NODE 61,NODE 60,Air Nodes
 Component Set,14,BRANCH,G NE APARTMENT ZN SAC MAIN BRANCH,COIL:HEATING:FUEL,G NE APARTMENT ZN PSZ-AC GAS BACKUP HTG COIL,NODE 60,NODE 59,Air Nodes
 Component Set,15,BRANCH,G NE APARTMENT ZN SAC MAIN BRANCH,FAN:CONSTANTVOLUME,G NE APARTMENT ZN SAC FAN,NODE 59,NODE 53,Air Nodes
 Component Set,16,BRANCH,G NW APARTMENT ZN SAC MAIN BRANCH,AIRLOOPHVAC:OUTDOORAIRSYSTEM,G NW APARTMENT ZN SAC OA SYS,NODE 40,NODE 50,Air Nodes
 Component Set,17,BRANCH,G NW APARTMENT ZN SAC MAIN BRANCH,COILSYSTEM:COOLING:DX,G NW APARTMENT ZN SAC 1SPD DX AC CLG COIL 13KBTU/HR 14.0SEER COILSYSTEM,NODE 50,NODE 49,Air Nodes
 Component Set,18,BRANCH,G NW APARTMENT ZN SAC MAIN BRANCH,COIL:HEATING:FUEL,G NW APARTMENT ZN SAC GAS HTG COIL,NODE 49,NODE 48,Air Nodes
 Component Set,19,BRANCH,G NW APARTMENT ZN SAC MAIN BRANCH,COIL:HEATING:FUEL,G NW APARTMENT ZN PSZ-AC GAS BACKUP HTG COIL,NODE 48,NODE 47,Air Nodes
 Component Set,20,BRANCH,G NW APARTMENT ZN SAC MAIN BRANCH,FAN:CONSTANTVOLUME,G NW APARTMENT ZN SAC FAN,NODE 47,NODE 41,Air Nodes
 Component Set,21,BRANCH,G S1 APARTMENT ZN SAC MAIN BRANCH,AIRLOOPHVAC:OUTDOORAIRSYSTEM,G S1 APARTMENT ZN SAC OA SYS,NODE 88,NODE 98,Air Nodes
 Component Set,22,BRANCH,G S1 APARTMENT ZN SAC MAIN BRANCH,COILSYSTEM:COOLING:DX,G S1 APARTMENT ZN SAC 1SPD DX AC CLG COIL 9KBTU/HR 14.0SEER COILSYSTEM,NODE 98,NODE 97,Air Nodes
 Component Set,23,BRANCH,G S1 APARTMENT ZN SAC MAIN BRANCH,COIL:HEATING:FUEL,G S1 APARTMENT ZN SAC GAS HTG COIL,NODE 97,NODE 96,Air Nodes
 Component Set,24,BRANCH,G S1 APARTMENT ZN SAC MAIN BRANCH,COIL:HEATING:FUEL,G S1 APARTMENT ZN PSZ-AC GAS BACKUP HTG COIL,NODE 96,NODE 95,Air Nodes
 Component Set,25,BRANCH,G S1 APARTMENT ZN SAC MAIN BRANCH,FAN:CONSTANTVOLUME,G S1 APARTMENT ZN SAC FAN,NODE 95,NODE 89,Air Nodes
 Component Set,26,BRANCH,G S2 APARTMENT ZN SAC MAIN BRANCH,AIRLOOPHVAC:OUTDOORAIRSYSTEM,G S2 APARTMENT ZN SAC OA SYS,NODE 100,NODE 110,Air Nodes
 Component Set,27,BRANCH,G S2 APARTMENT ZN SAC MAIN BRANCH,COILSYSTEM:COOLING:DX,G S2 APARTMENT ZN SAC 1SPD DX AC CLG COIL 9KBTU/HR 14.0SEER COILSYSTEM,NODE 110,NODE 109,Air Nodes
 Component Set,28,BRANCH,G S2 APARTMENT ZN SAC MAIN BRANCH,COIL:HEATING:FUEL,G S2 APARTMENT ZN SAC GAS HTG COIL,NODE 109,NODE 108,Air Nodes
 Component Set,29,BRANCH,G S2 APARTMENT ZN SAC MAIN BRANCH,COIL:HEATING:FUEL,G S2 APARTMENT ZN PSZ-AC GAS BACKUP HTG COIL,NODE 108,NODE 107,Air Nodes
 Component Set,30,BRANCH,G S2 APARTMENT ZN SAC MAIN BRANCH,FAN:CONSTANTVOLUME,G S2 APARTMENT ZN SAC FAN,NODE 107,NODE 101,Air Nodes
 Component Set,31,BRANCH,G SW APARTMENT ZN SAC MAIN BRANCH,AIRLOOPHVAC:OUTDOORAIRSYSTEM,G SW APARTMENT ZN SAC OA SYS,NODE 28,NODE 38,Air Nodes
 Component Set,32,BRANCH,G SW APARTMENT ZN SAC MAIN BRANCH,COILSYSTEM:COOLING:DX,G SW APARTMENT ZN SAC 1SPD DX AC CLG COIL 13KBTU/HR 14.0SEER COILSYSTEM,NODE 38,NODE 37,Air Nodes
 Component Set,33,BRANCH,G SW APARTMENT ZN SAC MAIN BRANCH,COIL:HEATING:FUEL,G SW APARTMENT ZN SAC GAS HTG COIL,NODE 37,NODE 36,Air Nodes
 Component Set,34,BRANCH,G SW APARTMENT ZN SAC MAIN BRANCH,COIL:HEATING:FUEL,G SW APARTMENT ZN PSZ-AC GAS BACKUP HTG COIL,NODE 36,NODE 35,Air Nodes
 Component Set,35,BRANCH,G SW APARTMENT ZN SAC MAIN BRANCH,FAN:CONSTANTVOLUME,G SW APARTMENT ZN SAC FAN,NODE 35,NODE 29,Air Nodes
 Component Set,36,BRANCH,M N1 APARTMENT ZN SAC MAIN BRANCH,AIRLOOPHVAC:OUTDOORAIRSYSTEM,M N1 APARTMENT ZN SAC OA SYS,NODE 160,NODE 170,Air Nodes
 Component Set,37,BRANCH,M N1 APARTMENT ZN SAC MAIN BRANCH,COILSYSTEM:COOLING:DX,M N1 APARTMENT ZN SAC 1SPD DX AC CLG COIL 21KBTU/HR 14.0SEER COILSYSTEM,NODE 170,NODE 169,Air Nodes
 Component Set,38,BRANCH,M N1 APARTMENT ZN SAC MAIN BRANCH,COIL:HEATING:FUEL,M N1 APARTMENT ZN SAC GAS HTG COIL,NODE 169,NODE 168,Air Nodes
 Component Set,39,BRANCH,M N1 APARTMENT ZN SAC MAIN BRANCH,COIL:HEATING:FUEL,M N1 APARTMENT ZN PSZ-AC GAS BACKUP HTG COIL,NODE 168,NODE 167,Air Nodes
 Component Set,40,BRANCH,M N1 APARTMENT ZN SAC MAIN BRANCH,FAN:CONSTANTVOLUME,M N1 APARTMENT ZN SAC FAN,NODE 167,NODE 161,Air Nodes
 Component Set,41,BRANCH,M N2 APARTMENT ZN SAC MAIN BRANCH,AIRLOOPHVAC:OUTDOORAIRSYSTEM,M N2 APARTMENT ZN SAC OA SYS,NODE 172,NODE 182,Air Nodes
 Component Set,42,BRANCH,M N2 APARTMENT ZN SAC MAIN BRANCH,COILSYSTEM:COOLING:DX,M N2 APARTMENT ZN SAC 1SPD DX AC CLG COIL 20KBTU/HR 14.0SEER COILSYSTEM,NODE 182,NODE 181,Air Nodes
 Component Set,43,BRANCH,M N2 APARTMENT ZN SAC MAIN BRANCH,COIL:HEATING:FUEL,M N2 APARTMENT ZN SAC GAS HTG COIL,NODE 181,NODE 180,Air Nodes
 Component Set,44,BRANCH,M N2 APARTMENT ZN SAC MAIN BRANCH,COIL:HEATING:FUEL,M N2 APARTMENT ZN PSZ-AC GAS BACKUP HTG COIL,NODE 180,NODE 179,Air Nodes
 Component Set,45,BRANCH,M N2 APARTMENT ZN SAC MAIN BRANCH,FAN:CONSTANTVOLUME,M N2 APARTMENT ZN SAC FAN,NODE 179,NODE 173,Air Nodes
 Component Set,46,BRANCH,M NE APARTMENT ZN SAC MAIN BRANCH,AIRLOOPHVAC:OUTDOORAIRSYSTEM,M NE APARTMENT ZN SAC OA SYS,NODE 148,NODE 158,Air Nodes
 Component Set,47,BRANCH,M NE APARTMENT ZN SAC MAIN BRANCH,COILSYSTEM:COOLING:DX,M NE APARTMENT ZN SAC 1SPD DX AC CLG COIL 26KBTU/HR 14.0SEER COILSYSTEM,NODE 158,NODE 157,Air Nodes
 Component Set,48,BRANCH,M NE APARTMENT ZN SAC MAIN BRANCH,COIL:HEATING:FUEL,M NE APARTMENT ZN SAC GAS HTG COIL,NODE 157,NODE 156,Air Nodes
 Component Set,49,BRANCH,M NE APARTMENT ZN SAC MAIN BRANCH,COIL:HEATING:FUEL,M NE APARTMENT ZN PSZ-AC GAS BACKUP HTG COIL,NODE 156,NODE 155,Air Nodes
 Component Set,50,BRANCH,M NE APARTMENT ZN SAC MAIN BRANCH,FAN:CONSTANTVOLUME,M NE APARTMENT ZN SAC FAN,NODE 155,NODE 149,Air Nodes
 Component Set,51,BRANCH,M NW APARTMENT ZN SAC MAIN BRANCH,AIRLOOPHVAC:OUTDOORAIRSYSTEM,M NW APARTMENT ZN SAC OA SYS,NODE 124,NODE 134,Air Nodes
 Component Set,52,BRANCH,M NW APARTMENT ZN SAC MAIN BRANCH,COILSYSTEM:COOLING:DX,M NW APARTMENT ZN SAC 1SPD DX AC CLG COIL 33KBTU/HR 14.0SEER COILSYSTEM,NODE 134,NODE 133,Air Nodes
 Component Set,53,BRANCH,M NW APARTMENT ZN SAC MAIN BRANCH,COIL:HEATING:FUEL,M NW APARTMENT ZN SAC GAS HTG COIL,NODE 133,NODE 132,Air Nodes
 Component Set,54,BRANCH,M NW APARTMENT ZN SAC MAIN BRANCH,COIL:HEATING:FUEL,M NW APARTMENT ZN PSZ-AC GAS BACKUP HTG COIL,NODE 132,NODE 131,Air Nodes
 Component Set,55,BRANCH,M NW APARTMENT ZN SAC MAIN BRANCH,FAN:CONSTANTVOLUME,M NW APARTMENT ZN SAC FAN,NODE 131,NODE 125,Air Nodes
 Component Set,56,BRANCH,M S1 APARTMENT ZN SAC MAIN BRANCH,AIRLOOPHVAC:OUTDOORAIRSYSTEM,M S1 APARTMENT ZN SAC OA SYS,NODE 184,NODE 194,Air Nodes
 Component Set,57,BRANCH,M S1 APARTMENT ZN SAC MAIN BRANCH,COILSYSTEM:COOLING:DX,M S1 APARTMENT ZN SAC 1SPD DX AC CLG COIL 25KBTU/HR 14.0SEER COILSYSTEM,NODE 194,NODE 193,Air Nodes
 Component Set,58,BRANCH,M S1 APARTMENT ZN SAC MAIN BRANCH,COIL:HEATING:FUEL,M S1 APARTMENT ZN SAC GAS HTG COIL,NODE 193,NODE 192,Air Nodes
 Component Set,59,BRANCH,M S1 APARTMENT ZN SAC MAIN BRANCH,COIL:HEATING:FUEL,M S1 APARTMENT ZN PSZ-AC GAS BACKUP HTG COIL,NODE 192,NODE 191,Air Nodes
 Component Set,60,BRANCH,M S1 APARTMENT ZN SAC MAIN BRANCH,FAN:CONSTANTVOLUME,M S1 APARTMENT ZN SAC FAN,NODE 191,NODE 185,Air Nodes
 Component Set,61,BRANCH,M S2 APARTMENT ZN SAC MAIN BRANCH,AIRLOOPHVAC:OUTDOORAIRSYSTEM,M S2 APARTMENT ZN SAC OA SYS,NODE 196,NODE 206,Air Nodes
 Component Set,62,BRANCH,M S2 APARTMENT ZN SAC MAIN BRANCH,COILSYSTEM:COOLING:DX,M S2 APARTMENT ZN SAC 1SPD DX AC CLG COIL 25KBTU/HR 14.0SEER COILSYSTEM,NODE 206,NODE 205,Air Nodes
 Component Set,63,BRANCH,M S2 APARTMENT ZN SAC MAIN BRANCH,COIL:HEATING:FUEL,M S2 APARTMENT ZN SAC GAS HTG COIL,NODE 205,NODE 204,Air Nodes
 Component Set,64,BRANCH,M S2 APARTMENT ZN SAC MAIN BRANCH,COIL:HEATING:FUEL,M S2 APARTMENT ZN PSZ-AC GAS BACKUP HTG COIL,NODE 204,NODE 203,Air Nodes
 Component Set,65,BRANCH,M S2 APARTMENT ZN SAC MAIN BRANCH,FAN:CONSTANTVOLUME,M S2 APARTMENT ZN SAC FAN,NODE 203,NODE 197,Air Nodes
 Component Set,66,BRANCH,M SE APARTMENT ZN SAC MAIN BRANCH,AIRLOOPHVAC:OUTDOORAIRSYSTEM,M SE APARTMENT ZN SAC OA SYS,NODE 136,NODE 146,Air Nodes
 Component Set,67,BRANCH,M SE APARTMENT ZN SAC MAIN BRANCH,COILSYSTEM:COOLING:DX,M SE APARTMENT ZN SAC 1SPD DX AC CLG COIL 30KBTU/HR 14.0SEER COILSYSTEM,NODE 146,NODE 145,Air Nodes
 Component Set,68,BRANCH,M SE APARTMENT ZN SAC MAIN BRANCH,COIL:HEATING:FUEL,M SE APARTMENT ZN SAC GAS HTG COIL,NODE 145,NODE 144,Air Nodes
 Component Set,69,BRANCH,M SE APARTMENT ZN SAC MAIN BRANCH,COIL:HEATING:FUEL,M SE APARTMENT ZN PSZ-AC GAS BACKUP HTG COIL,NODE 144,NODE 143,Air Nodes
 Component Set,70,BRANCH,M SE APARTMENT ZN SAC MAIN BRANCH,FAN:CONSTANTVOLUME,M SE APARTMENT ZN SAC FAN,NODE 143,NODE 137,Air Nodes
 Component Set,71,BRANCH,M SW APARTMENT ZN SAC MAIN BRANCH,AIRLOOPHVAC:OUTDOORAIRSYSTEM,M SW APARTMENT ZN SAC OA SYS,NODE 112,NODE 122,Air Nodes
 Component Set,72,BRANCH,M SW APARTMENT ZN SAC MAIN BRANCH,COILSYSTEM:COOLING:DX,M SW APARTMENT ZN SAC 1SPD DX AC CLG COIL 35KBTU/HR 14.0SEER COILSYSTEM,NODE 122,NODE 121,Air Nodes
 Component Set,73,BRANCH,M SW APARTMENT ZN SAC MAIN BRANCH,COIL:HEATING:FUEL,M SW APARTMENT ZN SAC GAS HTG COIL,NODE 121,NODE 120,Air Nodes
 Component Set,74,BRANCH,M SW APARTMENT ZN SAC MAIN BRANCH,COIL:HEATING:FUEL,M SW APARTMENT ZN PSZ-AC GAS BACKUP HTG COIL,NODE 120,NODE 119,Air Nodes
 Component Set,75,BRANCH,M SW APARTMENT ZN SAC MAIN BRANCH,FAN:CONSTANTVOLUME,M SW APARTMENT ZN SAC FAN,NODE 119,NODE 113,Air Nodes
 Component Set,76,BRANCH,OFFICE ZN SAC MAIN BRANCH,AIRLOOPHVAC:OUTDOORAIRSYSTEM,OFFICE ZN SAC OA SYS,NODE 304,NODE 314,Air Nodes
 Component Set,77,BRANCH,OFFICE ZN SAC MAIN BRANCH,COILSYSTEM:COOLING:DX,OFFICE ZN SAC 1SPD DX AC CLG COIL 29KBTU/HR 14.0SEER COILSYSTEM,NODE 314,NODE 313,Air Nodes
 Component Set,78,BRANCH,OFFICE ZN SAC MAIN BRANCH,COIL:HEATING:FUEL,OFFICE ZN SAC GAS HTG COIL,NODE 313,NODE 312,Air Nodes
 Component Set,79,BRANCH,OFFICE ZN SAC MAIN BRANCH,COIL:HEATING:FUEL,OFFICE ZN PSZ-AC GAS BACKUP HTG COIL,NODE 312,NODE 311,Air Nodes
 Component Set,80,BRANCH,OFFICE ZN SAC MAIN BRANCH,FAN:CONSTANTVOLUME,OFFICE ZN SAC FAN,NODE 311,NODE 305,Air Nodes
 Component Set,81,BRANCH,T N1 APARTMENT ZN SAC MAIN BRANCH,AIRLOOPHVAC:OUTDOORAIRSYSTEM,T N1 APARTMENT ZN SAC OA SYS,NODE 256,NODE 266,Air Nodes
 Component Set,82,BRANCH,T N1 APARTMENT ZN SAC MAIN BRANCH,COILSYSTEM:COOLING:DX,T N1 APARTMENT ZN SAC 1SPD DX AC CLG COIL 12KBTU/HR 14.0SEER COILSYSTEM,NODE 266,NODE 265,Air Nodes
 Component Set,83,BRANCH,T N1 APARTMENT ZN SAC MAIN BRANCH,COIL:HEATING:FUEL,T N1 APARTMENT ZN SAC GAS HTG COIL,NODE 265,NODE 264,Air Nodes
 Component Set,84,BRANCH,T N1 APARTMENT ZN SAC MAIN BRANCH,COIL:HEATING:FUEL,T N1 APARTMENT ZN PSZ-AC GAS BACKUP HTG COIL,NODE 264,NODE 263,Air Nodes
 Component Set,85,BRANCH,T N1 APARTMENT ZN SAC MAIN BRANCH,FAN:CONSTANTVOLUME,T N1 APARTMENT ZN SAC FAN,NODE 263,NODE 257,Air Nodes
 Component Set,86,BRANCH,T N2 APARTMENT ZN SAC MAIN BRANCH,AIRLOOPHVAC:OUTDOORAIRSYSTEM,T N2 APARTMENT ZN SAC OA SYS,NODE 268,NODE 278,Air Nodes
 Component Set,87,BRANCH,T N2 APARTMENT ZN SAC MAIN BRANCH,COILSYSTEM:COOLING:DX,T N2 APARTMENT ZN SAC 1SPD DX AC CLG COIL 12KBTU/HR 14.0SEER COILSYSTEM,NODE 278,NODE 277,Air Nodes
 Component Set,88,BRANCH,T N2 APARTMENT ZN SAC MAIN BRANCH,COIL:HEATING:FUEL,T N2 APARTMENT ZN SAC GAS HTG COIL,NODE 277,NODE 276,Air Nodes
 Component Set,89,BRANCH,T N2 APARTMENT ZN SAC MAIN BRANCH,COIL:HEATING:FUEL,T N2 APARTMENT ZN PSZ-AC GAS BACKUP HTG COIL,NODE 276,NODE 275,Air Nodes
 Component Set,90,BRANCH,T N2 APARTMENT ZN SAC MAIN BRANCH,FAN:CONSTANTVOLUME,T N2 APARTMENT ZN SAC FAN,NODE 275,NODE 269,Air Nodes
 Component Set,91,BRANCH,T NE APARTMENT ZN SAC MAIN BRANCH,AIRLOOPHVAC:OUTDOORAIRSYSTEM,T NE APARTMENT ZN SAC OA SYS,NODE 244,NODE 254,Air Nodes
 Component Set,92,BRANCH,T NE APARTMENT ZN SAC MAIN BRANCH,COILSYSTEM:COOLING:DX,T NE APARTMENT ZN SAC 1SPD DX AC CLG COIL 15KBTU/HR 14.0SEER COILSYSTEM,NODE 254,NODE 253,Air Nodes
 Component Set,93,BRANCH,T NE APARTMENT ZN SAC MAIN BRANCH,COIL:HEATING:FUEL,T NE APARTMENT ZN SAC GAS HTG COIL,NODE 253,NODE 252,Air Nodes
 Component Set,94,BRANCH,T NE APARTMENT ZN SAC MAIN BRANCH,COIL:HEATING:FUEL,T NE APARTMENT ZN PSZ-AC GAS BACKUP HTG COIL,NODE 252,NODE 251,Air Nodes
 Component Set,95,BRANCH,T NE APARTMENT ZN SAC MAIN BRANCH,FAN:CONSTANTVOLUME,T NE APARTMENT ZN SAC FAN,NODE 251,NODE 245,Air Nodes
 Component Set,96,BRANCH,T NW APARTMENT ZN SAC MAIN BRANCH,AIRLOOPHVAC:OUTDOORAIRSYSTEM,T NW APARTMENT ZN SAC OA SYS,NODE 220,NODE 230,Air Nodes
 Component Set,97,BRANCH,T NW APARTMENT ZN SAC MAIN BRANCH,COILSYSTEM:COOLING:DX,T NW APARTMENT ZN SAC 1SPD DX AC CLG COIL 19KBTU/HR 14.0SEER COILSYSTEM,NODE 230,NODE 229,Air Nodes
 Component Set,98,BRANCH,T NW APARTMENT ZN SAC MAIN BRANCH,COIL:HEATING:FUEL,T NW APARTMENT ZN SAC GAS HTG COIL,NODE 229,NODE 228,Air Nodes
 Component Set,99,BRANCH,T NW APARTMENT ZN SAC MAIN BRANCH,COIL:HEATING:FUEL,T NW APARTMENT ZN PSZ-AC GAS BACKUP HTG COIL,NODE 228,NODE 227,Air Nodes
 Component Set,100,BRANCH,T NW APARTMENT ZN SAC MAIN BRANCH,FAN:CONSTANTVOLUME,T NW APARTMENT ZN SAC FAN,NODE 227,NODE 221,Air Nodes
 Component Set,101,BRANCH,T S1 APARTMENT ZN SAC MAIN BRANCH,AIRLOOPHVAC:OUTDOORAIRSYSTEM,T S1 APARTMENT ZN SAC OA SYS,NODE 280,NODE 290,Air Nodes
 Component Set,102,BRANCH,T S1 APARTMENT ZN SAC MAIN BRANCH,COILSYSTEM:COOLING:DX,T S1 APARTMENT ZN SAC 1SPD DX AC CLG COIL 16KBTU/HR 14.0SEER COILSYSTEM,NODE 290,NODE 289,Air Nodes
 Component Set,103,BRANCH,T S1 APARTMENT ZN SAC MAIN BRANCH,COIL:HEATING:FUEL,T S1 APARTMENT ZN SAC GAS HTG COIL,NODE 289,NODE 288,Air Nodes
 Component Set,104,BRANCH,T S1 APARTMENT ZN SAC MAIN BRANCH,COIL:HEATING:FUEL,T S1 APARTMENT ZN PSZ-AC GAS BACKUP HTG COIL,NODE 288,NODE 287,Air Nodes
 Component Set,105,BRANCH,T S1 APARTMENT ZN SAC MAIN BRANCH,FAN:CONSTANTVOLUME,T S1 APARTMENT ZN SAC FAN,NODE 287,NODE 281,Air Nodes
 Component Set,106,BRANCH,T S2 APARTMENT ZN SAC MAIN BRANCH,AIRLOOPHVAC:OUTDOORAIRSYSTEM,T S2 APARTMENT ZN SAC OA SYS,NODE 292,NODE 302,Air Nodes
 Component Set,107,BRANCH,T S2 APARTMENT ZN SAC MAIN BRANCH,COILSYSTEM:COOLING:DX,T S2 APARTMENT ZN SAC 1SPD DX AC CLG COIL 16KBTU/HR 14.0SEER COILSYSTEM,NODE 302,NODE 301,Air Nodes
 Component Set,108,BRANCH,T S2 APARTMENT ZN SAC MAIN BRANCH,COIL:HEATING:FUEL,T S2 APARTMENT ZN SAC GAS HTG COIL,NODE 301,NODE 300,Air Nodes
 Component Set,109,BRANCH,T S2 APARTMENT ZN SAC MAIN BRANCH,COIL:HEATING:FUEL,T S2 APARTMENT ZN PSZ-AC GAS BACKUP HTG COIL,NODE 300,NODE 299,Air Nodes
 Component Set,110,BRANCH,T S2 APARTMENT ZN SAC MAIN BRANCH,FAN:CONSTANTVOLUME,T S2 APARTMENT ZN SAC FAN,NODE 299,NODE 293,Air Nodes
 Component Set,111,BRANCH,T SE APARTMENT ZN SAC MAIN BRANCH,AIRLOOPHVAC:OUTDOORAIRSYSTEM,T SE APARTMENT ZN SAC OA SYS,NODE 232,NODE 242,Air Nodes
 Component Set,112,BRANCH,T SE APARTMENT ZN SAC MAIN BRANCH,COILSYSTEM:COOLING:DX,T SE APARTMENT ZN SAC 1SPD DX AC CLG COIL 19KBTU/HR 14.0SEER COILSYSTEM,NODE 242,NODE 241,Air Nodes
 Component Set,113,BRANCH,T SE APARTMENT ZN SAC MAIN BRANCH,COIL:HEATING:FUEL,T SE APARTMENT ZN SAC GAS HTG COIL,NODE 241,NODE 240,Air Nodes
 Component Set,114,BRANCH,T SE APARTMENT ZN SAC MAIN BRANCH,COIL:HEATING:FUEL,T SE APARTMENT ZN PSZ-AC GAS BACKUP HTG COIL,NODE 240,NODE 239,Air Nodes
 Component Set,115,BRANCH,T SE APARTMENT ZN SAC MAIN BRANCH,FAN:CONSTANTVOLUME,T SE APARTMENT ZN SAC FAN,NODE 239,NODE 233,Air Nodes
 Component Set,116,BRANCH,T SW APARTMENT ZN SAC MAIN BRANCH,AIRLOOPHVAC:OUTDOORAIRSYSTEM,T SW APARTMENT ZN SAC OA SYS,NODE 208,NODE 218,Air Nodes
 Component Set,117,BRANCH,T SW APARTMENT ZN SAC MAIN BRANCH,COILSYSTEM:COOLING:DX,T SW APARTMENT ZN SAC 1SPD DX AC CLG COIL 21KBTU/HR 14.0SEER COILSYSTEM,NODE 218,NODE 217,Air Nodes
 Component Set,118,BRANCH,T SW APARTMENT ZN SAC MAIN BRANCH,COIL:HEATING:FUEL,T SW APARTMENT ZN SAC GAS HTG COIL,NODE 217,NODE 216,Air Nodes
 Component Set,119,BRANCH,T SW APARTMENT ZN SAC MAIN BRANCH,COIL:HEATING:FUEL,T SW APARTMENT ZN PSZ-AC GAS BACKUP HTG COIL,NODE 216,NODE 215,Air Nodes
 Component Set,120,BRANCH,T SW APARTMENT ZN SAC MAIN BRANCH,FAN:CONSTANTVOLUME,T SW APARTMENT ZN SAC FAN,NODE 215,NODE 209,Air Nodes
 Component Set,121,BRANCH,PLANT LOOP 1 SUPPLY INLET BRANCH,PUMP:CONSTANTSPEED,SERVICE LOOP PUMP 1,NODE 330,NODE 338,Water Nodes
 Component Set,122,BRANCH,PLANT LOOP 1 SUPPLY BRANCH 1,PIPE:ADIABATIC,PIPE ADIABATIC 1,NODE 332,NODE 340,Pipe Nodes
 Component Set,123,BRANCH,PLANT LOOP 1 SUPPLY BRANCH 2,WATERHEATER:MIXED,50GAL ELECTRICITY WATER HEATER - 50KBTU/HR 1.0 THERM EFF,NODE 343,NODE 318,Use Side Water Nodes
 Component Set,124,BRANCH,PLANT LOOP 1 SUPPLY OUTLET BRANCH,PIPE:ADIABATIC,PIPE ADIABATIC 3,NODE 339,NODE 317,Pipe Nodes
 Component Set,125,BRANCH,PLANT LOOP 1 DEMAND INLET BRANCH,PIPE:ADIABATIC,PIPE ADIABATIC 4,NODE 333,NODE 342,Pipe Nodes
 Component Set,126,BRANCH,PLANT LOOP 1 DEMAND BRANCH 1,PIPE:ADIABATIC,PIPE ADIABATIC 2,NODE 316,NODE 417,Pipe Nodes
 Component Set,127,BRANCH,PLANT LOOP 1 DEMAND BRANCH 2,WATERUSE:CONNECTIONS,WATER USE CONNECTION,NODE 319,NODE 320,DHW Nodes
 Component Set,128,BRANCH,PLANT LOOP 1 DEMAND BYPASS BRANCH,PIPE:ADIABATIC,PLANT LOOP 1 DEMAND BYPASS PIPE,PLANT LOOP 1 DEMAND BYPASS PIPE INLET NODE,PLANT LOOP 1 DEMAND BYPASS PIPE OUTLET NODE,Pipe Nodes
 Component Set,129,BRANCH,PLANT LOOP 1 DEMAND OUTLET BRANCH,PIPE:ADIABATIC,PIPE ADIABATIC 5,NODE 341,NODE 336,Pipe Nodes
 Component Set,130,BRANCH,PLANT LOOP 2 SUPPLY INLET BRANCH,PUMP:CONSTANTSPEED,SERVICE LOOP PUMP 2,NODE 321,NODE 322,Water Nodes
 Component Set,131,BRANCH,PLANT LOOP 2 SUPPLY BRANCH 1,PIPE:ADIABATIC,PIPE ADIABATIC 9,NODE 323,NODE 331,Pipe Nodes
 Component Set,132,BRANCH,PLANT LOOP 2 SUPPLY BRANCH 2,WATERHEATER:MIXED,50GAL ELECTRICITY WATER HEATER - 50KBTU/HR 1.0,NODE 344,NODE 345,Use Side Water Nodes
 Component Set,133,BRANCH,PLANT LOOP 2 SUPPLY OUTLET BRANCH,PIPE:ADIABATIC,PIPE ADIABATIC 6,NODE 327,NODE 418,Pipe Nodes
 Component Set,134,BRANCH,PLANT LOOP 2 DEMAND INLET BRANCH,PIPE:ADIABATIC,PIPE ADIABATIC 7,NODE 324,NODE 328,Pipe Nodes
 Component Set,135,BRANCH,PLANT LOOP 2 DEMAND BRANCH 1,PIPE:ADIABATIC,PIPE ADIABATIC 10,NODE 326,NODE 334,Pipe Nodes
 Component Set,136,BRANCH,PLANT LOOP 2 DEMAND BRANCH 2,WATERUSE:CONNECTIONS,WATER USE CONNECTION 1,NODE 335,NODE 337,DHW Nodes
 Component Set,137,BRANCH,PLANT LOOP 2 DEMAND BYPASS BRANCH,PIPE:ADIABATIC,PLANT LOOP 2 DEMAND BYPASS PIPE,PLANT LOOP 2 DEMAND BYPASS PIPE INLET NODE,PLANT LOOP 2 DEMAND BYPASS PIPE OUTLET NODE,Pipe Nodes
 Component Set,138,BRANCH,PLANT LOOP 2 DEMAND OUTLET BRANCH,PIPE:ADIABATIC,PIPE ADIABATIC 8,NODE 329,NODE 325,Pipe Nodes
 Component Set,139,ZONEHVAC:AIRDISTRIBUTIONUNIT,ADU G N1 APARTMENT ZN SAC DIFFUSER,AIRTERMINAL:SINGLEDUCT:CONSTANTVOLUME:NOREHEAT,G N1 APARTMENT ZN SAC DIFFUSER,G N1 APARTMENT ZN SAC DIFFUSER INLET NODE,NODE 68,Air Nodes
 Component Set,140,ZONEHVAC:AIRDISTRIBUTIONUNIT,ADU G N2 APARTMENT ZN SAC DIFFUSER,AIRTERMINAL:SINGLEDUCT:CONSTANTVOLUME:NOREHEAT,G N2 APARTMENT ZN SAC DIFFUSER,G N2 APARTMENT ZN SAC DIFFUSER INLET NODE,NODE 80,Air Nodes
 Component Set,141,ZONEHVAC:AIRDISTRIBUTIONUNIT,ADU G NE APARTMENT ZN SAC DIFFUSER,AIRTERMINAL:SINGLEDUCT:CONSTANTVOLUME:NOREHEAT,G NE APARTMENT ZN SAC DIFFUSER,G NE APARTMENT ZN SAC DIFFUSER INLET NODE,NODE 56,Air Nodes
 Component Set,142,ZONEHVAC:AIRDISTRIBUTIONUNIT,ADU G NW APARTMENT ZN SAC DIFFUSER,AIRTERMINAL:SINGLEDUCT:CONSTANTVOLUME:NOREHEAT,G NW APARTMENT ZN SAC DIFFUSER,G NW APARTMENT ZN SAC DIFFUSER INLET NODE,NODE 44,Air Nodes
 Component Set,143,ZONEHVAC:AIRDISTRIBUTIONUNIT,ADU G S1 APARTMENT ZN SAC DIFFUSER,AIRTERMINAL:SINGLEDUCT:CONSTANTVOLUME:NOREHEAT,G S1 APARTMENT ZN SAC DIFFUSER,G S1 APARTMENT ZN SAC DIFFUSER INLET NODE,NODE 92,Air Nodes
 Component Set,144,ZONEHVAC:AIRDISTRIBUTIONUNIT,ADU G S2 APARTMENT ZN SAC DIFFUSER,AIRTERMINAL:SINGLEDUCT:CONSTANTVOLUME:NOREHEAT,G S2 APARTMENT ZN SAC DIFFUSER,G S2 APARTMENT ZN SAC DIFFUSER INLET NODE,NODE 104,Air Nodes
 Component Set,145,ZONEHVAC:AIRDISTRIBUTIONUNIT,ADU G SW APARTMENT ZN SAC DIFFUSER,AIRTERMINAL:SINGLEDUCT:CONSTANTVOLUME:NOREHEAT,G SW APARTMENT ZN SAC DIFFUSER,G SW APARTMENT ZN SAC DIFFUSER INLET NODE,NODE 32,Air Nodes
 Component Set,146,ZONEHVAC:AIRDISTRIBUTIONUNIT,ADU M N1 APARTMENT ZN SAC DIFFUSER,AIRTERMINAL:SINGLEDUCT:CONSTANTVOLUME:NOREHEAT,M N1 APARTMENT ZN SAC DIFFUSER,M N1 APARTMENT ZN SAC DIFFUSER INLET NODE,NODE 164,Air Nodes
 Component Set,147,ZONEHVAC:AIRDISTRIBUTIONUNIT,ADU M N2 APARTMENT ZN SAC DIFFUSER,AIRTERMINAL:SINGLEDUCT:CONSTANTVOLUME:NOREHEAT,M N2 APARTMENT ZN SAC DIFFUSER,M N2 APARTMENT ZN SAC DIFFUSER INLET NODE,NODE 176,Air Nodes
 Component Set,148,ZONEHVAC:AIRDISTRIBUTIONUNIT,ADU M NE APARTMENT ZN SAC DIFFUSER,AIRTERMINAL:SINGLEDUCT:CONSTANTVOLUME:NOREHEAT,M NE APARTMENT ZN SAC DIFFUSER,M NE APARTMENT ZN SAC DIFFUSER INLET NODE,NODE 152,Air Nodes
 Component Set,149,ZONEHVAC:AIRDISTRIBUTIONUNIT,ADU M NW APARTMENT ZN SAC DIFFUSER,AIRTERMINAL:SINGLEDUCT:CONSTANTVOLUME:NOREHEAT,M NW APARTMENT ZN SAC DIFFUSER,M NW APARTMENT ZN SAC DIFFUSER INLET NODE,NODE 128,Air Nodes
 Component Set,150,ZONEHVAC:AIRDISTRIBUTIONUNIT,ADU M S1 APARTMENT ZN SAC DIFFUSER,AIRTERMINAL:SINGLEDUCT:CONSTANTVOLUME:NOREHEAT,M S1 APARTMENT ZN SAC DIFFUSER,M S1 APARTMENT ZN SAC DIFFUSER INLET NODE,NODE 188,Air Nodes
 Component Set,151,ZONEHVAC:AIRDISTRIBUTIONUNIT,ADU M S2 APARTMENT ZN SAC DIFFUSER,AIRTERMINAL:SINGLEDUCT:CONSTANTVOLUME:NOREHEAT,M S2 APARTMENT ZN SAC DIFFUSER,M S2 APARTMENT ZN SAC DIFFUSER INLET NODE,NODE 200,Air Nodes
[...]
 Non-Parent Node Connection,NODE 414,HEATEXCHANGER:AIRTOAIR:SENSIBLEANDLATENT,T S1 APARTMENT ZN SAC ERV,Inlet,2
 Non-Parent Node Connection,NODE 286,HEATEXCHANGER:AIRTOAIR:SENSIBLEANDLATENT,T S1 APARTMENT ZN SAC ERV,Outlet,2
 Non-Parent Node Connection,NODE 297,HEATEXCHANGER:AIRTOAIR:SENSIBLEANDLATENT,T S2 APARTMENT ZN SAC ERV,Inlet,1
 Non-Parent Node Connection,NODE 415,HEATEXCHANGER:AIRTOAIR:SENSIBLEANDLATENT,T S2 APARTMENT ZN SAC ERV,Outlet,1
 Non-Parent Node Connection,NODE 416,HEATEXCHANGER:AIRTOAIR:SENSIBLEANDLATENT,T S2 APARTMENT ZN SAC ERV,Inlet,2
 Non-Parent Node Connection,NODE 298,HEATEXCHANGER:AIRTOAIR:SENSIBLEANDLATENT,T S2 APARTMENT ZN SAC ERV,Outlet,2
 Non-Parent Node Connection,NODE 74,COIL:COOLING:DX:SINGLESPEED,G N1 APARTMENT ZN COIL,Inlet,1
 Non-Parent Node Connection,NODE 73,COIL:COOLING:DX:SINGLESPEED,G N1 APARTMENT ZN COIL,Outlet,1
 Non-Parent Node Connection,NODE 86,COIL:COOLING:DX:SINGLESPEED,G N2 APARTMENT ZN COIL,Inlet,1
 Non-Parent Node Connection,NODE 85,COIL:COOLING:DX:SINGLESPEED,G N2 APARTMENT ZN COIL,Outlet,1
 Non-Parent Node Connection,NODE 62,COIL:COOLING:DX:SINGLESPEED,G NE APARTMENT ZN COIL,Inlet,1
 Non-Parent Node Connection,NODE 61,COIL:COOLING:DX:SINGLESPEED,G NE APARTMENT ZN COIL,Outlet,1
 Non-Parent Node Connection,NODE 50,COIL:COOLING:DX:SINGLESPEED,G NW APARTMENT ZN COIL,Inlet,1
 Non-Parent Node Connection,NODE 49,COIL:COOLING:DX:SINGLESPEED,G NW APARTMENT ZN COIL,Outlet,1
 Non-Parent Node Connection,NODE 98,COIL:COOLING:DX:SINGLESPEED,G S1 APARTMENT ZN COIL,Inlet,1
 Non-Parent Node Connection,NODE 97,COIL:COOLING:DX:SINGLESPEED,G S1 APARTMENT ZN COIL,Outlet,1
 Non-Parent Node Connection,NODE 110,COIL:COOLING:DX:SINGLESPEED,G S2 APARTMENT ZN COIL,Inlet,1
 Non-Parent Node Connection,NODE 109,COIL:COOLING:DX:SINGLESPEED,G S2 APARTMENT ZN COIL,Outlet,1
 Non-Parent Node Connection,NODE 38,COIL:COOLING:DX:SINGLESPEED,G SW APARTMENT ZN COIL,Inlet,1
 Non-Parent Node Connection,NODE 37,COIL:COOLING:DX:SINGLESPEED,G SW APARTMENT ZN COIL,Outlet,1
 Non-Parent Node Connection,NODE 170,COIL:COOLING:DX:SINGLESPEED,M N1 APARTMENT ZN COIL,Inlet,1
 Non-Parent Node Connection,NODE 169,COIL:COOLING:DX:SINGLESPEED,M N1 APARTMENT ZN COIL,Outlet,1
 Non-Parent Node Connection,NODE 182,COIL:COOLING:DX:SINGLESPEED,M N2 APARTMENT ZN COIL,Inlet,1
 Non-Parent Node Connection,NODE 181,COIL:COOLING:DX:SINGLESPEED,M N2 APARTMENT ZN COIL,Outlet,1
 Non-Parent Node Connection,NODE 158,COIL:COOLING:DX:SINGLESPEED,M NE APARTMENT ZN COIL,Inlet,1
 Non-Parent Node Connection,NODE 157,COIL:COOLING:DX:SINGLESPEED,M NE APARTMENT ZN COIL,Outlet,1
 Non-Parent Node Connection,NODE 134,COIL:COOLING:DX:SINGLESPEED,M NW APARTMENT ZN COIL,Inlet,1
 Non-Parent Node Connection,NODE 133,COIL:COOLING:DX:SINGLESPEED,M NW APARTMENT ZN COIL,Outlet,1
 Non-Parent Node Connection,NODE 194,COIL:COOLING:DX:SINGLESPEED,M S1 APARTMENT ZN COIL,Inlet,1
 Non-Parent Node Connection,NODE 193,COIL:COOLING:DX:SINGLESPEED,M S1 APARTMENT ZN COIL,Outlet,1
 Non-Parent Node Connection,NODE 206,COIL:COOLING:DX:SINGLESPEED,M S2 APARTMENT ZN COIL,Inlet,1
 Non-Parent Node Connection,NODE 205,COIL:COOLING:DX:SINGLESPEED,M S2 APARTMENT ZN COIL,Outlet,1
 Non-Parent Node Connection,NODE 146,COIL:COOLING:DX:SINGLESPEED,M SE APARTMENT ZN COIL,Inlet,1
 Non-Parent Node Connection,NODE 145,COIL:COOLING:DX:SINGLESPEED,M SE APARTMENT ZN COIL,Outlet,1
 Non-Parent Node Connection,NODE 122,COIL:COOLING:DX:SINGLESPEED,M SW APARTMENT ZN COIL,Inlet,1
 Non-Parent Node Connection,NODE 121,COIL:COOLING:DX:SINGLESPEED,M SW APARTMENT ZN COIL,Outlet,1
 Non-Parent Node Connection,NODE 314,COIL:COOLING:DX:SINGLESPEED,OFFICE ZN COIL,Inlet,1
 Non-Parent Node Connection,NODE 313,COIL:COOLING:DX:SINGLESPEED,OFFICE ZN COIL,Outlet,1
 Non-Parent Node Connection,NODE 266,COIL:COOLING:DX:SINGLESPEED,T N1 APARTMENT ZN COIL,Inlet,1
 Non-Parent Node Connection,NODE 265,COIL:COOLING:DX:SINGLESPEED,T N1 APARTMENT ZN COIL,Outlet,1
 Non-Parent Node Connection,NODE 278,COIL:COOLING:DX:SINGLESPEED,T N2 APARTMENT ZN COIL,Inlet,1
 Non-Parent Node Connection,NODE 277,COIL:COOLING:DX:SINGLESPEED,T N2 APARTMENT ZN COIL,Outlet,1
 Non-Parent Node Connection,NODE 254,COIL:COOLING:DX:SINGLESPEED,T NE APARTMENT ZN COIL,Inlet,1
 Non-Parent Node Connection,NODE 253,COIL:COOLING:DX:SINGLESPEED,T NE APARTMENT ZN COIL,Outlet,1
 Non-Parent Node Connection,NODE 230,COIL:COOLING:DX:SINGLESPEED,T NW APARTMENT ZN COIL,Inlet,1
 Non-Parent Node Connection,NODE 229,COIL:COOLING:DX:SINGLESPEED,T NW APARTMENT ZN COIL,Outlet,1
 Non-Parent Node Connection,NODE 290,COIL:COOLING:DX:SINGLESPEED,T S1 APARTMENT ZN COIL,Inlet,1
 Non-Parent Node Connection,NODE 289,COIL:COOLING:DX:SINGLESPEED,T S1 APARTMENT ZN COIL,Outlet,1
 Non-Parent Node Connection,NODE 302,COIL:COOLING:DX:SINGLESPEED,T S2 APARTMENT ZN COIL,Inlet,1
 Non-Parent Node Connection,NODE 301,COIL:COOLING:DX:SINGLESPEED,T S2 APARTMENT ZN COIL,Outlet,1
 Non-Parent Node Connection,NODE 242,COIL:COOLING:DX:SINGLESPEED,T SE APARTMENT ZN COIL,Inlet,1
 Non-Parent Node Connection,NODE 241,COIL:COOLING:DX:SINGLESPEED,T SE APARTMENT ZN COIL,Outlet,1
 Non-Parent Node Connection,NODE 218,COIL:COOLING:DX:SINGLESPEED,T SW APARTMENT ZN COIL,Inlet,1
 Non-Parent Node Connection,NODE 217,COIL:COOLING:DX:SINGLESPEED,T SW APARTMENT ZN COIL,Outlet,1
 Non-Parent Node Connection,NODE 73,COIL:HEATING:FUEL,G N1 APARTMENT ZN SAC GAS HTG COIL,Inlet,1
 Non-Parent Node Connection,NODE 72,COIL:HEATING:FUEL,G N1 APARTMENT ZN SAC GAS HTG COIL,Outlet,1
 Non-Parent Node Connection,NODE 72,COIL:HEATING:FUEL,G N1 APARTMENT ZN SAC GAS HTG COIL,Sensor,1
 Non-Parent Node Connection,NODE 72,COIL:HEATING:FUEL,G N1 APARTMENT ZN PSZ-AC GAS BACKUP HTG COIL,Inlet,1
 Non-Parent Node Connection,NODE 71,COIL:HEATING:FUEL,G N1 APARTMENT ZN PSZ-AC GAS BACKUP HTG COIL,Outlet,1
 Non-Parent Node Connection,NODE 71,COIL:HEATING:FUEL,G N1 APARTMENT ZN PSZ-AC GAS BACKUP HTG COIL,Sensor,1
 Non-Parent Node Connection,NODE 85,COIL:HEATING:FUEL,G N2 APARTMENT ZN SAC GAS HTG COIL,Inlet,1
 Non-Parent Node Connection,NODE 84,COIL:HEATING:FUEL,G N2 APARTMENT ZN SAC GAS HTG COIL,Outlet,1
 Non-Parent Node Connection,NODE 84,COIL:HEATING:FUEL,G N2 APARTMENT ZN SAC GAS HTG COIL,Sensor,1
 Non-Parent Node Connection,NODE 84,COIL:HEATING:FUEL,G N2 APARTMENT ZN PSZ-AC GAS BACKUP HTG COIL,Inlet,1
 Non-Parent Node Connection,NODE 83,COIL:HEATING:FUEL,G N2 APARTMENT ZN PSZ-AC GAS BACKUP HTG COIL,Outlet,1
 Non-Parent Node Connection,NODE 83,COIL:HEATING:FUEL,G N2 APARTMENT ZN PSZ-AC GAS BACKUP HTG COIL,Sensor,1
 Non-Parent Node Connection,NODE 61,COIL:HEATING:FUEL,G NE APARTMENT ZN SAC GAS HTG COIL,Inlet,1
 Non-Parent Node Connection,NODE 60,COIL:HEATING:FUEL,G NE APARTMENT ZN SAC GAS HTG COIL,Outlet,1
 Non-Parent Node Connection,NODE 60,COIL:HEATING:FUEL,G NE APARTMENT ZN SAC GAS HTG COIL,Sensor,1
 Non-Parent Node Connection,NODE 60,COIL:HEATING:FUEL,G NE APARTMENT ZN PSZ-AC GAS BACKUP HTG COIL,Inlet,1
 Non-Parent Node Connection,NODE 59,COIL:HEATING:FUEL,G NE APARTMENT ZN PSZ-AC GAS BACKUP HTG COIL,Outlet,1
 Non-Parent Node Connection,NODE 59,COIL:HEATING:FUEL,G NE APARTMENT ZN PSZ-AC GAS BACKUP HTG COIL,Sensor,1
 Non-Parent Node Connection,NODE 49,COIL:HEATING:FUEL,G NW APARTMENT ZN SAC GAS HTG COIL,Inlet,1
 Non-Parent Node Connection,NODE 48,COIL:HEATING:FUEL,G NW APARTMENT ZN SAC GAS HTG COIL,Outlet,1
 Non-Parent Node Connection,NODE 48,COIL:HEATING:FUEL,G NW APARTMENT ZN SAC GAS HTG COIL,Sensor,1
 Non-Parent Node Connection,NODE 48,COIL:HEATING:FUEL,G NW APARTMENT ZN PSZ-AC GAS BACKUP HTG COIL,Inlet,1
 Non-Parent Node Connection,NODE 47,COIL:HEATING:FUEL,G NW APARTMENT ZN PSZ-AC GAS BACKUP HTG COIL,Outlet,1
 Non-Parent Node Connection,NODE 47,COIL:HEATING:FUEL,G NW APARTMENT ZN PSZ-AC GAS BACKUP HTG COIL,Sensor,1
 Non-Parent Node Connection,NODE 97,COIL:HEATING:FUEL,G S1 APARTMENT ZN SAC GAS HTG COIL,Inlet,1
 Non-Parent Node Connection,NODE 96,COIL:HEATING:FUEL,G S1 APARTMENT ZN SAC GAS HTG COIL,Outlet,1
 Non-Parent Node Connection,NODE 96,COIL:HEATING:FUEL,G S1 APARTMENT ZN SAC GAS HTG COIL,Sensor,1
 Non-Parent Node Connection,NODE 96,COIL:HEATING:FUEL,G S1 APARTMENT ZN PSZ-AC GAS BACKUP HTG COIL,Inlet,1
 Non-Parent Node Connection,NODE 95,COIL:HEATING:FUEL,G S1 APARTMENT ZN PSZ-AC GAS BACKUP HTG COIL,Outlet,1
 Non-Parent Node Connection,NODE 95,COIL:HEATING:FUEL,G S1 APARTMENT ZN PSZ-AC GAS BACKUP HTG COIL,Sensor,1
 Non-Parent Node Connection,NODE 109,COIL:HEATING:FUEL,G S2 APARTMENT ZN SAC GAS HTG COIL,Inlet,1
 Non-Parent Node Connection,NODE 108,COIL:HEATING:FUEL,G S2 APARTMENT ZN SAC GAS HTG COIL,Outlet,1
 Non-Parent Node Connection,NODE 108,COIL:HEATING:FUEL,G S2 APARTMENT ZN SAC GAS HTG COIL,Sensor,1
 Non-Parent Node Connection,NODE 108,COIL:HEATING:FUEL,G S2 APARTMENT ZN PSZ-AC GAS BACKUP HTG COIL,Inlet,1
 Non-Parent Node Connection,NODE 107,COIL:HEATING:FUEL,G S2 APARTMENT ZN PSZ-AC GAS BACKUP HTG COIL,Outlet,1
 Non-Parent Node Connection,NODE 107,COIL:HEATING:FUEL,G S2 APARTMENT ZN PSZ-AC GAS BACKUP HTG COIL,Sensor,1
 Non-Parent Node Connection,NODE 37,COIL:HEATING:FUEL,G SW APARTMENT ZN SAC GAS HTG COIL,Inlet,1
 Non-Parent Node Connection,NODE 36,COIL:HEATING:FUEL,G SW APARTMENT ZN SAC GAS HTG COIL,Outlet,1
 Non-Parent Node Connection,NODE 36,COIL:HEATING:FUEL,G SW APARTMENT ZN SAC GAS HTG COIL,Sensor,1
 Non-Parent Node Connection,NODE 36,COIL:HEATING:FUEL,G SW APARTMENT ZN PSZ-AC GAS BACKUP HTG COIL,Inlet,1
 Non-Parent Node Connection,NODE 35,COIL:HEATING:FUEL,G SW APARTMENT ZN PSZ-AC GAS BACKUP HTG COIL,Outlet,1
 Non-Parent Node Connection,NODE 35,COIL:HEATING:FUEL,G SW APARTMENT ZN PSZ-AC GAS BACKUP HTG COIL,Sensor,1
 Non-Parent Node Connection,NODE 169,COIL:HEATING:FUEL,M N1 APARTMENT ZN SAC GAS HTG COIL,Inlet,1
 Non-Parent Node Connection,NODE 168,COIL:HEATING:FUEL,M N1 APARTMENT ZN SAC GAS HTG COIL,Outlet,1
 Non-Parent Node Connection,NODE 168,COIL:HEATING:FUEL,M N1 APARTMENT ZN SAC GAS HTG COIL,Sensor,1
 Non-Parent Node Connection,NODE 168,COIL:HEATING:FUEL,M N1 APARTMENT ZN PSZ-AC GAS BACKUP HTG COIL,Inlet,1
 Non-Parent Node Connection,NODE 167,COIL:HEATING:FUEL,M N1 APARTMENT ZN PSZ-AC GAS BACKUP HTG COIL,Outlet,1
 Non-Parent Node Connection,NODE 167,COIL:HEATING:FUEL,M N1 APARTMENT ZN PSZ-AC GAS BACKUP HTG COIL,Sensor,1
 Non-Parent Node Connection,NODE 181,COIL:HEATING:FUEL,M N2 APARTMENT ZN SAC GAS HTG COIL,Inlet,1
 Non-Parent Node Connection,NODE 180,COIL:HEATING:FUEL,M N2 APARTMENT ZN SAC GAS HTG COIL,Outlet,1
 Non-Parent Node Connection,NODE 180,COIL:HEATING:FUEL,M N2 APARTMENT ZN SAC GAS HTG COIL,Sensor,1
 Non-Parent Node Connection,NODE 180,COIL:HEATING:FUEL,M N2 APARTMENT ZN PSZ-AC GAS BACKUP HTG COIL,Inlet,1
 Non-Parent Node Connection,NODE 179,COIL:HEATING:FUEL,M N2 APARTMENT ZN PSZ-AC GAS BACKUP HTG COIL,Outlet,1
 Non-Parent Node Connection,NODE 179,COIL:HEATING:FUEL,M N2 APARTMENT ZN PSZ-AC GAS BACKUP HTG COIL,Sensor,1
 Non-Parent Node Connection,NODE 157,COIL:HEATING:FUEL,M NE APARTMENT ZN SAC GAS HTG COIL,Inlet,1
 Non-Parent Node Connection,NODE 156,COIL:HEATING:FUEL,M NE APARTMENT ZN SAC GAS HTG COIL,Outlet,1
 Non-Parent Node Connection,NODE 156,COIL:HEATING:FUEL,M NE APARTMENT ZN SAC GAS HTG COIL,Sensor,1
 Non-Parent Node Connection,NODE 156,COIL:HEATING:FUEL,M NE APARTMENT ZN PSZ-AC GAS BACKUP HTG COIL,Inlet,1
 Non-Parent Node Connection,NODE 155,COIL:HEATING:FUEL,M NE APARTMENT ZN PSZ-AC GAS BACKUP HTG COIL,Outlet,1
 Non-Parent Node Connection,NODE 155,COIL:HEATING:FUEL,M NE APARTMENT ZN PSZ-AC GAS BACKUP HTG COIL,Sensor,1
 Non-Parent Node Connection,NODE 133,COIL:HEATING:FUEL,M NW APARTMENT ZN SAC GAS HTG COIL,Inlet,1
 Non-Parent Node Connection,NODE 132,COIL:HEATING:FUEL,M NW APARTMENT ZN SAC GAS HTG COIL,Outlet,1
 Non-Parent Node Connection,NODE 132,COIL:HEATING:FUEL,M NW APARTMENT ZN SAC GAS HTG COIL,Sensor,1
 Non-Parent Node Connection,NODE 132,COIL:HEATING:FUEL,M NW APARTMENT ZN PSZ-AC GAS BACKUP HTG COIL,Inlet,1
 Non-Parent Node Connection,NODE 131,COIL:HEATING:FUEL,M NW APARTMENT ZN PSZ-AC GAS BACKUP HTG COIL,Outlet,1
 Non-Parent Node Connection,NODE 131,COIL:HEATING:FUEL,M NW APARTMENT ZN PSZ-AC GAS BACKUP HTG COIL,Sensor,1
 Non-Parent Node Connection,NODE 193,COIL:HEATING:FUEL,M S1 APARTMENT ZN SAC GAS HTG COIL,Inlet,1
 Non-Parent Node Connection,NODE 192,COIL:HEATING:FUEL,M S1 APARTMENT ZN SAC GAS HTG COIL,Outlet,1
 Non-Parent Node Connection,NODE 192,COIL:HEATING:FUEL,M S1 APARTMENT ZN SAC GAS HTG COIL,Sensor,1
 Non-Parent Node Connection,NODE 192,COIL:HEATING:FUEL,M S1 APARTMENT ZN PSZ-AC GAS BACKUP HTG COIL,Inlet,1
 Non-Parent Node Connection,NODE 191,COIL:HEATING:FUEL,M S1 APARTMENT ZN PSZ-AC GAS BACKUP HTG COIL,Outlet,1
 Non-Parent Node Connection,NODE 191,COIL:HEATING:FUEL,M S1 APARTMENT ZN PSZ-AC GAS BACKUP HTG COIL,Sensor,1
 Non-Parent Node Connection,NODE 205,COIL:HEATING:FUEL,M S2 APARTMENT ZN SAC GAS HTG COIL,Inlet,1
 Non-Parent Node Connection,NODE 204,COIL:HEATING:FUEL,M S2 APARTMENT ZN SAC GAS HTG COIL,Outlet,1
 Non-Parent Node Connection,NODE 204,COIL:HEATING:FUEL,M S2 APARTMENT ZN SAC GAS HTG COIL,Sensor,1
 Non-Parent Node Connection,NODE 204,COIL:HEATING:FUEL,M S2 APARTMENT ZN PSZ-AC GAS BACKUP HTG COIL,Inlet,1
 Non-Parent Node Connection,NODE 203,COIL:HEATING:FUEL,M S2 APARTMENT ZN PSZ-AC GAS BACKUP HTG COIL,Outlet,1
 Non-Parent Node Connection,NODE 203,COIL:HEATING:FUEL,M S2 APARTMENT ZN PSZ-AC GAS BACKUP HTG COIL,Sensor,1
 Non-Parent Node Connection,NODE 145,COIL:HEATING:FUEL,M SE APARTMENT ZN SAC GAS HTG COIL,Inlet,1
 Non-Parent Node Connection,NODE 144,COIL:HEATING:FUEL,M SE APARTMENT ZN SAC GAS HTG COIL,Outlet,1
 Non-Parent Node Connection,NODE 144,COIL:HEATING:FUEL,M SE APARTMENT ZN SAC GAS HTG COIL,Sensor,1
 Non-Parent Node Connection,NODE 144,COIL:HEATING:FUEL,M SE APARTMENT ZN PSZ-AC GAS BACKUP HTG COIL,Inlet,1
 Non-Parent Node Connection,NODE 143,COIL:HEATING:FUEL,M SE APARTMENT ZN PSZ-AC GAS BACKUP HTG COIL,Outlet,1
 Non-Parent Node Connection,NODE 143,COIL:HEATING:FUEL,M SE APARTMENT ZN PSZ-AC GAS BACKUP HTG COIL,Sensor,1
 Non-Parent Node Connection,NODE 121,COIL:HEATING:FUEL,M SW APARTMENT ZN SAC GAS HTG COIL,Inlet,1
 Non-Parent Node Connection,NODE 120,COIL:HEATING:FUEL,M SW APARTMENT ZN SAC GAS HTG COIL,Outlet,1
 Non-Parent Node Connection,NODE 120,COIL:HEATING:FUEL,M SW APARTMENT ZN SAC GAS HTG COIL,Sensor,1
 Non-Parent Node Connection,NODE 120,COIL:HEATING:FUEL,M SW APARTMENT ZN PSZ-AC GAS BACKUP HTG COIL,Inlet,1
 Non-Parent Node Connection,NODE 119,COIL:HEATING:FUEL,M SW APARTMENT ZN PSZ-AC GAS BACKUP HTG COIL,Outlet,1
 Non-Parent Node Connection,NODE 119,COIL:HEATING:FUEL,M SW APARTMENT ZN PSZ-AC GAS BACKUP HTG COIL,Sensor,1
 Non-Parent Node Connection,NODE 313,COIL:HEATING:FUEL,OFFICE ZN SAC GAS HTG COIL,Inlet,1
 Non-Parent Node Connection,NODE 312,COIL:HEATING:FUEL,OFFICE ZN SAC GAS HTG COIL,Outlet,1
 Non-Parent Node Connection,NODE 312,COIL:HEATING:FUEL,OFFICE ZN SAC GAS HTG COIL,Sensor,1
 Non-Parent Node Connection,NODE 312,COIL:HEATING:FUEL,OFFICE ZN PSZ-AC GAS BACKUP HTG COIL,Inlet,1
 Non-Parent Node Connection,NODE 311,COIL:HEATING:FUEL,OFFICE ZN PSZ-AC GAS BACKUP HTG COIL,Outlet,1
 Non-Parent Node Connection,NODE 311,COIL:HEATING:FUEL,OFFICE ZN PSZ-AC GAS BACKUP HTG COIL,Sensor,1
 Non-Parent Node Connection,NODE 265,COIL:HEATING:FUEL,T N1 APARTMENT ZN SAC GAS HTG COIL,Inlet,1
 Non-Parent Node Connection,NODE 264,COIL:HEATING:FUEL,T N1 APARTMENT ZN SAC GAS HTG COIL,Outlet,1
 Non-Parent Node Connection,NODE 264,COIL:HEATING:FUEL,T N1 APARTMENT ZN SAC GAS HTG COIL,Sensor,1
 Non-Parent Node Connection,NODE 264,COIL:HEATING:FUEL,T N1 APARTMENT ZN PSZ-AC GAS BACKUP HTG COIL,Inlet,1
 Non-Parent Node Connection,NODE 263,COIL:HEATING:FUEL,T N1 APARTMENT ZN PSZ-AC GAS BACKUP HTG COIL,Outlet,1
 Non-Parent Node Connection,NODE 263,COIL:HEATING:FUEL,T N1 APARTMENT ZN PSZ-AC GAS BACKUP HTG COIL,Sensor,1
 Non-Parent Node Connection,NODE 277,COIL:HEATING:FUEL,T N2 APARTMENT ZN SAC GAS HTG COIL,Inlet,1
 Non-Parent Node Connection,NODE 276,COIL:HEATING:FUEL,T N2 APARTMENT ZN SAC GAS HTG COIL,Outlet,1
 Non-Parent Node Connection,NODE 276,COIL:HEATING:FUEL,T N2 APARTMENT ZN SAC GAS HTG COIL,Sensor,1
 Non-Parent Node Connection,NODE 276,COIL:HEATING:FUEL,T N2 APARTMENT ZN PSZ-AC GAS BACKUP HTG COIL,Inlet,1
 Non-Parent Node Connection,NODE 275,COIL:HEATING:FUEL,T N2 APARTMENT ZN PSZ-AC GAS BACKUP HTG COIL,Outlet,1
 Non-Parent Node Connection,NODE 275,COIL:HEATING:FUEL,T N2 APARTMENT ZN PSZ-AC GAS BACKUP HTG COIL,Sensor,1
 Non-Parent Node Connection,NODE 253,COIL:HEATING:FUEL,T NE APARTMENT ZN SAC GAS HTG COIL,Inlet,1
 Non-Parent Node Connection,NODE 252,COIL:HEATING:FUEL,T NE APARTMENT ZN SAC GAS HTG COIL,Outlet,1
 Non-Parent Node Connection,NODE 252,COIL:HEATING:FUEL,T NE APARTMENT ZN SAC GAS HTG COIL,Sensor,1
 Non-Parent Node Connection,NODE 252,COIL:HEATING:FUEL,T NE APARTMENT ZN PSZ-AC GAS BACKUP HTG COIL,Inlet,1
 Non-Parent Node Connection,NODE 251,COIL:HEATING:FUEL,T NE APARTMENT ZN PSZ-AC GAS BACKUP HTG COIL,Outlet,1
 Non-Parent Node Connection,NODE 251,COIL:HEATING:FUEL,T NE APARTMENT ZN PSZ-AC GAS BACKUP HTG COIL,Sensor,1
 Non-Parent Node Connection,NODE 229,COIL:HEATING:FUEL,T NW APARTMENT ZN SAC GAS HTG COIL,Inlet,1
 Non-Parent Node Connection,NODE 228,COIL:HEATING:FUEL,T NW APARTMENT ZN SAC GAS HTG COIL,Outlet,1
 Non-Parent Node Connection,NODE 228,COIL:HEATING:FUEL,T NW APARTMENT ZN SAC GAS HTG COIL,Sensor,1
 Non-Parent Node Connection,NODE 228,COIL:HEATING:FUEL,T NW APARTMENT ZN PSZ-AC GAS BACKUP HTG COIL,Inlet,1
 Non-Parent Node Connection,NODE 227,COIL:HEATING:FUEL,T NW APARTMENT ZN PSZ-AC GAS BACKUP HTG COIL,Outlet,1
 Non-Parent Node Connection,NODE 227,COIL:HEATING:FUEL,T NW APARTMENT ZN PSZ-AC GAS BACKUP HTG COIL,Sensor,1
 Non-Parent Node Connection,NODE 289,COIL:HEATING:FUEL,T S1 APARTMENT ZN SAC GAS HTG COIL,Inlet,1
 Non-Parent Node Connection,NODE 288,COIL:HEATING:FUEL,T S1 APARTMENT ZN SAC GAS HTG COIL,Outlet,1
 Non-Parent Node Connection,NODE 288,COIL:HEATING:FUEL,T S1 APARTMENT ZN SAC GAS HTG COIL,Sensor,1
 Non-Parent Node Connection,NODE 288,COIL:HEATING:FUEL,T S1 APARTMENT ZN PSZ-AC GAS BACKUP HTG COIL,Inlet,1
 Non-Parent Node Connection,NODE 287,COIL:HEATING:FUEL,T S1 APARTMENT ZN PSZ-AC GAS BACKUP HTG COIL,Outlet,1
 Non-Parent Node Connection,NODE 287,COIL:HEATING:FUEL,T S1 APARTMENT ZN PSZ-AC GAS BACKUP HTG COIL,Sensor,1
 Non-Parent Node Connection,NODE 301,COIL:HEATING:FUEL,T S2 APARTMENT ZN SAC GAS HTG COIL,Inlet,1
 Non-Parent Node Connection,NODE 300,COIL:HEATING:FUEL,T S2 APARTMENT ZN SAC GAS HTG COIL,Outlet,1
 Non-Parent Node Connection,NODE 300,COIL:HEATING:FUEL,T S2 APARTMENT ZN SAC GAS HTG COIL,Sensor,1
 Non-Parent Node Connection,NODE 300,COIL:HEATING:FUEL,T S2 APARTMENT ZN PSZ-AC GAS BACKUP HTG COIL,Inlet,1
 Non-Parent Node Connection,NODE 299,COIL:HEATING:FUEL,T S2 APARTMENT ZN PSZ-AC GAS BACKUP HTG COIL,Outlet,1
 Non-Parent Node Connection,NODE 299,COIL:HEATING:FUEL,T S2 APARTMENT ZN PSZ-AC GAS BACKUP HTG COIL,Sensor,1
 Non-Parent Node Connection,NODE 241,COIL:HEATING:FUEL,T SE APARTMENT ZN SAC GAS HTG COIL,Inlet,1
 Non-Parent Node Connection,NODE 240,COIL:HEATING:FUEL,T SE APARTMENT ZN SAC GAS HTG COIL,Outlet,1
 Non-Parent Node Connection,NODE 240,COIL:HEATING:FUEL,T SE APARTMENT ZN SAC GAS HTG COIL,Sensor,1
 Non-Parent Node Connection,NODE 240,COIL:HEATING:FUEL,T SE APARTMENT ZN PSZ-AC GAS BACKUP HTG COIL,Inlet,1
 Non-Parent Node Connection,NODE 239,COIL:HEATING:FUEL,T SE APARTMENT ZN PSZ-AC GAS BACKUP HTG COIL,Outlet,1
 Non-Parent Node Connection,NODE 239,COIL:HEATING:FUEL,T SE APARTMENT ZN PSZ-AC GAS BACKUP HTG COIL,Sensor,1
 Non-Parent Node Connection,NODE 217,COIL:HEATING:FUEL,T SW APARTMENT ZN SAC GAS HTG COIL,Inlet,1
 Non-Parent Node Connection,NODE 216,COIL:HEATING:FUEL,T SW APARTMENT ZN SAC GAS HTG COIL,Outlet,1
 Non-Parent Node Connection,NODE 216,COIL:HEATING:FUEL,T SW APARTMENT ZN SAC GAS HTG COIL,Sensor,1
 Non-Parent Node Connection,NODE 216,COIL:HEATING:FUEL,T SW APARTMENT ZN PSZ-AC GAS BACKUP HTG COIL,Inlet,1
 Non-Parent Node Connection,NODE 215,COIL:HEATING:FUEL,T S