Program Version,EnergyPlus, Version 9.1.0-08d2e308bb, YMD=2020.03.25 18:34
! <Version>, Version ID
 Version, 9.1
! <Timesteps per Hour>, #TimeSteps, Minutes per TimeStep {minutes}
 Timesteps per Hour, 60,  1
! <System Convergence Limits>, Minimum System TimeStep {minutes}, Max HVAC Iterations, Minimum Plant Iterations, Maximum Plant Iterations
 System Convergence Limits, 1, 20, 2, 8
! <Simulation Control>, Do Zone Sizing, Do System Sizing, Do Plant Sizing, Do Design Days, Do Weather Simulation, Do HVAC Sizing Simulation
 Simulation Control, Yes, Yes, Yes, No, Yes, No
! <Output Reporting Tolerances>, Tolerance for Time Heating Setpoint Not Met, Tolerance for Zone Cooling Setpoint Not Met Time
 Output Reporting Tolerances, 0.200, 0.200, 
! <Site:GroundTemperature:BuildingSurface>,Jan{C},Feb{C},Mar{C},Apr{C},May{C},Jun{C},Jul{C},Aug{C},Sep{C},Oct{C},Nov{C},Dec{C}
 Site:GroundTemperature:BuildingSurface,  20.25,  20.17,  20.19,  20.28,  20.41,  22.70,  23.15,  23.26,  23.29,  21.04,  20.65,  20.43
! <Site:GroundTemperature:FCfactorMethod>,Jan{C},Feb{C},Mar{C},Apr{C},May{C},Jun{C},Jul{C},Aug{C},Sep{C},Oct{C},Nov{C},Dec{C}
 Site:GroundTemperature:FCfactorMethod,   5.75,   4.81,   6.48,   9.09,  15.93,  21.20,  24.76,  25.84,  23.99,  19.90,  14.43,   9.35
! <Site:GroundTemperature:Shallow>,Jan{C},Feb{C},Mar{C},Apr{C},May{C},Jun{C},Jul{C},Aug{C},Sep{C},Oct{C},Nov{C},Dec{C}
 Site:GroundTemperature:Shallow,  13.00,  13.00,  13.00,  13.00,  13.00,  13.00,  13.00,  13.00,  13.00,  13.00,  13.00,  13.00
! <Site:GroundTemperature:Deep>,Jan{C},Feb{C},Mar{C},Apr{C},May{C},Jun{C},Jul{C},Aug{C},Sep{C},Oct{C},Nov{C},Dec{C}
 Site:GroundTemperature:Deep,  16.00,  16.00,  16.00,  16.00,  16.00,  16.00,  16.00,  16.00,  16.00,  16.00,  16.00,  16.00
! <Site:GroundReflectance>,Jan{dimensionless},Feb{dimensionless},Mar{dimensionless},Apr{dimensionless},May{dimensionless},Jun{dimensionless},Jul{dimensionless},Aug{dimensionless},Sep{dimensionless},Oct{dimensionless},Nov{dimensionless},Dec{dimensionless}
 Site:GroundReflectance,  0.20,  0.20,  0.20,  0.20,  0.20,  0.20,  0.20,  0.20,  0.20,  0.20,  0.20,  0.20
! <Site:GroundReflectance:SnowModifier>, Normal, Daylighting {dimensionless}
 Site:GroundReflectance:SnowModifier,   1.000,   1.000
! <Site:GroundReflectance:Snow>,Jan{dimensionless},Feb{dimensionless},Mar{dimensionless},Apr{dimensionless},May{dimensionless},Jun{dimensionless},Jul{dimensionless},Aug{dimensionless},Sep{dimensionless},Oct{dimensionless},Nov{dimensionless},Dec{dimensionless}
 Site:GroundReflectance:Snow,  0.20,  0.20,  0.20,  0.20,  0.20,  0.20,  0.20,  0.20,  0.20,  0.20,  0.20,  0.20
! <Site:GroundReflectance:Snow:Daylighting>,Jan{dimensionless},Feb{dimensionless},Mar{dimensionless},Apr{dimensionless},May{dimensionless},Jun{dimensionless},Jul{dimensionless},Aug{dimensionless},Sep{dimensionless},Oct{dimensionless},Nov{dimensionless},Dec{dimensionless}
 Site:GroundReflectance:Snow:Daylighting,  0.20,  0.20,  0.20,  0.20,  0.20,  0.20,  0.20,  0.20,  0.20,  0.20,  0.20,  0.20
! <Environment:Weather Station>,Wind Sensor Height Above Ground {m},Wind Speed Profile Exponent {},Wind Speed Profile Boundary Layer Thickness {m},Air Temperature Sensor Height Above Ground {m},Wind Speed Modifier Coefficient-Internal,Temperature Modifier Coefficient-Internal
Environment:Weather Station,10.000,0.140,270.000,1.500,1.586,9.750E-003
! <Site:Location>, Location Name, Latitude {N+/S- Deg}, Longitude {E+/W- Deg},  Time Zone Number {GMT+/-}, Elevation {m},  Standard Pressure at Elevation {Pa}, Standard RhoAir at Elevation
Site:Location,Anderson County Ap SC USA TMY3 WMO#=723125,34.50,-82.72,-5.00,232.00,98569,1.1715
! <Site Water Mains Temperature Information>,Calculation Method{},Water Mains Temperature Schedule Name{},Annual Average Outdoor Air Temperature{C},Maximum Difference In Monthly Average Outdoor Air Temperatures{deltaC},Fixed Default Water Mains Temperature{C}
Site Water Mains Temperature Information,Correlation,NA,9.93,15.00,NA
! <Building Information>, Building Name,North Axis {deg},Terrain,  Loads Convergence Tolerance Value,Temperature Convergence Tolerance Value,  Solar Distribution,Maximum Number of Warmup Days,Minimum Number of Warmup Days
 Building Information,-MidriseApartment-ASHRAE 169-2006-5A created: 2018-08-20 14:19:44 -0600,0.000,City,4.00000E-002,0.40000,FullExterior,25,6
! <Inside Convection Algorithm>, Algorithm {Simple | TARP | CeilingDiffuser | AdaptiveConvectionAlgorithm}
Inside Convection Algorithm,TARP
! <Outside Convection Algorithm>, Algorithm {SimpleCombined | TARP | MoWitt | DOE-2 | AdaptiveConvectionAlgorithm}
Outside Convection Algorithm,TARP
! <Sky Radiance Distribution>, Value {Anisotropic}
Sky Radiance Distribution,Anisotropic
! <Zone Air Solution Algorithm>, Value {ThirdOrderBackwardDifference | AnalyticalSolution | EulerMethod}
 Zone Air Solution Algorithm, ThirdOrderBackwardDifference
! <Zone Air Carbon Dioxide Balance Simulation>, Simulation {Yes/No}, Carbon Dioxide Concentration
 Zone Air Carbon Dioxide Balance Simulation, No,N/A
! <Zone Air Generic Contaminant Balance Simulation>, Simulation {Yes/No}, Generic Contaminant Concentration
 Zone Air Generic Contaminant Balance Simulation, No,N/A
! <Zone Air Mass Flow Balance Simulation>, Enforce Mass Balance, Adjust Zone Mixing, Adjust Zone Infiltration {AddInfiltration | AdjustInfiltration | None}, Infiltration Zones {MixingSourceZonesOnly | AllZones}
 Zone Air Mass Flow Balance Simulation, No,N/A,N/A,N/A
! <HVACSystemRootFindingAlgorithm>, Value {RegulaFalsi | Bisection | BisectionThenRegulaFalsi | RegulaFalsiThenBisection}
 HVACSystemRootFindingAlgorithm, RegulaFalsi
! <Environment:Site Atmospheric Variation>,Wind Speed Profile Exponent {},Wind Speed Profile Boundary Layer Thickness {m},Air Temperature Gradient Coefficient {K/m}
Environment:Site Atmospheric Variation,0.330,460.000,6.500000E-003
! <Surface Geometry>,Starting Corner,Vertex Input Direction,Coordinate System,Daylight Reference Point Coordinate System,Rectangular (Simple) Surface Coordinate System
 Surface Geometry,UpperLeftCorner,Counterclockwise,RelativeCoordinateSystem,RelativeCoordinateSystem,RelativeToZoneOrigin
! <Surface Heat Transfer Algorithm>, Value {CTF - ConductionTransferFunction | EMPD - MoisturePenetrationDepthConductionTransferFunction | CondFD - ConductionFiniteDifference | HAMT - CombinedHeatAndMoistureFiniteElement} - Description,Inside Surface Max Temperature Limit{C}, Surface Convection Coefficient Lower Limit {W/m2-K}, Surface Convection Coefficient Upper Limit {W/m2-K}
Surface Heat Transfer Algorithm, CTF - ConductionTransferFunction,200,0.10,1000.0
! <Shading Summary>, Number of Fixed Detached Shades, Number of Building Detached Shades, Number of Attached Shades
 Shading Summary,0,0,0
! <Zone Summary>, Number of Zones, Number of Zone Surfaces, Number of SubSurfaces
 Zone Summary,27,243,39
! <Zone Information>,Zone Name,North Axis {deg},Origin X-Coordinate {m},Origin Y-Coordinate {m},Origin Z-Coordinate {m},Centroid X-Coordinate {m},Centroid Y-Coordinate {m},Centroid Z-Coordinate {m},Type,Zone Multiplier,Zone List Multiplier,Minimum X {m},Maximum X {m},Minimum Y {m},Maximum Y {m},Minimum Z {m},Maximum Z {m},Ceiling Height {m},Volume {m3},Zone Inside Convection Algorithm {Simple-Detailed-CeilingDiffuser-TrombeWall},Zone Outside Convection Algorithm {Simple-Detailed-Tarp-MoWitt-DOE-2-BLAST}, Floor Area {m2},Exterior Gross Wall Area {m2},Exterior Net Wall Area {m2},Exterior Window Area {m2}, Number of Surfaces, Number of SubSurfaces, Number of Shading SubSurfaces,  Part of Total Building Area
 Zone Information, G CORRIDOR ZN,0.0,0.00,7.62,0.00,23.16,8.46,1.52,1,1,1,0.00,46.33,7.62,9.30,0.00,3.05,3.05,236.69,TARP,TARP,77.66,10.22,6.90,3.32,12,1,0,Yes
 Zone Information, G N1 APARTMENT ZN,0.0,11.58,9.30,0.00,17.37,13.11,1.52,1,1,1,11.58,23.16,9.30,16.92,0.00,3.05,3.05,268.97,TARP,TARP,88.25,35.30,28.24,7.06,6,1,0,Yes
 Zone Information, G N2 APARTMENT ZN,0.0,23.16,9.30,0.00,28.95,13.11,1.52,1,1,1,23.16,34.75,9.30,16.92,0.00,3.05,3.05,268.97,TARP,TARP,88.25,35.30,28.24,7.06,6,1,0,Yes
 Zone Information, G NE APARTMENT ZN,0.0,34.75,9.30,0.00,40.54,13.11,1.52,1,1,1,34.75,46.33,9.30,16.92,0.00,3.05,3.05,268.97,TARP,TARP,88.25,58.52,46.82,11.71,6,2,0,Yes
 Zone Information, G NW APARTMENT ZN,0.0,0.00,9.30,0.00,5.79,13.11,1.52,1,1,1,0.00,11.58,9.30,16.92,0.00,3.05,3.05,268.97,TARP,TARP,88.25,58.52,46.82,11.71,6,2,0,Yes
 Zone Information, G S1 APARTMENT ZN,0.0,11.58,0.00,0.00,17.37,3.81,1.52,1,1,1,11.58,23.16,0.00,7.62,0.00,3.05,3.05,268.97,TARP,TARP,88.25,35.30,28.24,7.06,6,1,0,Yes
 Zone Information, G S2 APARTMENT ZN,0.0,23.16,0.00,0.00,28.95,3.81,1.52,1,1,1,23.16,34.75,0.00,7.62,0.00,3.05,3.05,268.97,TARP,TARP,88.25,35.30,28.24,7.06,6,1,0,Yes
 Zone Information, G SW APARTMENT ZN,0.0,0.00,0.00,0.00,5.79,3.81,1.52,1,1,1,0.00,11.58,0.00,7.62,0.00,3.05,3.05,268.97,TARP,TARP,88.25,58.52,46.82,11.71,6,2,0,Yes
 Zone Information, M CORRIDOR ZN,0.0,0.00,7.62,3.05,23.16,8.46,4.57,1,1,1,0.00,46.33,7.62,9.30,3.05,6.10,3.05,236.69,TARP,TARP,77.66,10.22,9.10,1.11,12,1,0,Yes
 Zone Information, M N1 APARTMENT ZN,0.0,11.58,9.30,3.05,17.37,13.11,4.57,1,1,1,11.58,23.16,9.30,16.92,3.05,6.10,3.05,268.97,TARP,TARP,88.25,35.30,28.24,7.06,6,1,0,Yes
 Zone Information, M N2 APARTMENT ZN,0.0,23.16,9.30,3.05,28.95,13.11,4.57,1,1,1,23.16,34.75,9.30,16.92,3.05,6.10,3.05,268.97,TARP,TARP,88.25,35.30,28.24,7.06,6,1,0,Yes
 Zone Information, M NE APARTMENT ZN,0.0,34.75,9.30,3.05,40.54,13.11,4.57,1,1,1,34.75,46.33,9.30,16.92,3.05,6.10,3.05,268.97,TARP,TARP,88.25,58.52,46.82,11.71,6,2,0,Yes
 Zone Information, M NW APARTMENT ZN,0.0,0.00,9.30,3.05,5.79,13.11,4.57,1,1,1,0.00,11.58,9.30,16.92,3.05,6.10,3.05,268.97,TARP,TARP,88.25,58.52,46.82,11.71,6,2,0,Yes
 Zone Information, M S1 APARTMENT ZN,0.0,11.58,0.00,3.05,17.37,3.81,4.57,1,1,1,11.58,23.16,0.00,7.62,3.05,6.10,3.05,268.97,TARP,TARP,88.25,35.30,28.24,7.06,6,1,0,Yes
 Zone Information, M S2 APARTMENT ZN,0.0,23.16,0.00,3.05,28.95,3.81,4.57,1,1,1,23.16,34.75,0.00,7.62,3.05,6.10,3.05,268.97,TARP,TARP,88.25,35.30,28.24,7.06,6,1,0,Yes
 Zone Information, M SE APARTMENT ZN,0.0,34.75,0.00,3.05,40.54,3.81,4.57,1,1,1,34.75,46.33,0.00,7.62,3.05,6.10,3.05,268.97,TARP,TARP,88.25,58.52,46.82,11.71,6,2,0,Yes
 Zone Information, M SW APARTMENT ZN,0.0,0.00,0.00,3.05,5.79,3.81,4.57,1,1,1,0.00,11.58,0.00,7.62,3.05,6.10,3.05,268.97,TARP,TARP,88.25,58.52,46.82,11.71,6,2,0,Yes
 Zone Information, OFFICE ZN,0.0,34.75,0.00,0.00,40.54,3.81,1.52,1,1,1,34.75,46.33,0.00,7.62,0.00,3.05,3.05,268.97,TARP,TARP,88.25,58.52,46.82,11.71,6,2,0,Yes
 Zone Information, T CORRIDOR ZN,0.0,0.00,7.62,9.14,23.16,8.46,10.67,1,1,1,0.00,46.33,7.62,9.30,9.14,12.19,3.05,236.69,TARP,TARP,77.66,10.22,9.10,1.11,12,1,0,Yes
 Zone Information, T N1 APARTMENT ZN,0.0,11.58,9.30,9.14,17.37,13.11,10.67,1,1,1,11.58,23.16,9.30,16.92,9.14,12.19,3.05,268.97,TARP,TARP,88.25,35.30,28.24,7.06,6,1,0,Yes
 Zone Information, T N2 APARTMENT ZN,0.0,23.16,9.30,9.14,28.95,13.11,10.67,1,1,1,23.16,34.75,9.30,16.92,9.14,12.19,3.05,268.97,TARP,TARP,88.25,35.30,28.24,7.06,6,1,0,Yes
 Zone Information, T NE APARTMENT ZN,0.0,34.75,9.30,9.14,40.54,13.11,10.67,1,1,1,34.75,46.33,9.30,16.92,9.14,12.19,3.05,268.97,TARP,TARP,88.25,58.52,46.82,11.71,6,2,0,Yes
 Zone Information, T NW APARTMENT ZN,0.0,0.00,9.30,9.14,5.79,13.11,10.67,1,1,1,0.00,11.58,9.30,16.92,9.14,12.19,3.05,268.97,TARP,TARP,88.25,58.52,46.82,11.71,6,2,0,Yes
 Zone Information, T S1 APARTMENT ZN,0.0,11.58,0.00,9.14,17.37,3.81,10.67,1,1,1,11.58,23.16,0.00,7.62,9.14,12.19,3.05,268.97,TARP,TARP,88.25,35.30,28.24,7.06,6,1,0,Yes
 Zone Information, T S2 APARTMENT ZN,0.0,23.16,0.00,9.14,28.95,3.81,10.67,1,1,1,23.16,34.75,0.00,7.62,9.14,12.19,3.05,268.97,TARP,TARP,88.25,35.30,28.24,7.06,6,1,0,Yes
 Zone Information, T SE APARTMENT ZN,0.0,34.75,0.00,9.14,40.54,3.81,10.67,1,1,1,34.75,46.33,0.00,7.62,9.14,12.19,3.05,268.97,TARP,TARP,88.25,58.52,46.82,11.71,6,2,0,Yes
 Zone Information, T SW APARTMENT ZN,0.0,0.00,0.00,9.14,5.79,3.81,10.67,1,1,1,0.00,11.58,0.00,7.62,9.14,12.19,3.05,268.97,TARP,TARP,88.25,58.52,46.82,11.71,6,2,0,Yes
! <Zone Internal Gains Nominal>,Zone Name, Floor Area {m2},# Occupants,Area per Occupant {m2/person},Occupant per Area {person/m2},Interior Lighting {W/m2},Electric Load {W/m2},Gas Load {W/m2},Other Load {W/m2},Hot Water Eq {W/m2},Steam Equipment {W/m2},Sum Loads per Area {W/m2},Outdoor Controlled Baseboard Heat
 Zone Internal Gains Nominal, G CORRIDOR ZN,77.66,0.0,N/A,0.000,6.710,6.611,0.000,0.000,0.000,0.000,13.321,No
 Zone Internal Gains Nominal, G N1 APARTMENT ZN,88.25,2.5,35.300,2.833E-002,3.339,62.458,0.000,0.000,0.000,0.000,65.796,No
 Zone Internal Gains Nominal, G N2 APARTMENT ZN,88.25,2.5,35.300,2.833E-002,3.339,62.458,0.000,0.000,0.000,0.000,65.796,No
 Zone Internal Gains Nominal, G NE APARTMENT ZN,88.25,2.5,35.300,2.833E-002,3.339,62.458,0.000,0.000,0.000,0.000,65.796,No
 Zone Internal Gains Nominal, G NW APARTMENT ZN,88.25,2.5,35.300,2.833E-002,3.339,62.458,0.000,0.000,0.000,0.000,65.796,No
 Zone Internal Gains Nominal, G S1 APARTMENT ZN,88.25,2.5,35.300,2.833E-002,3.339,62.458,0.000,0.000,0.000,0.000,65.796,No
 Zone Internal Gains Nominal, G S2 APARTMENT ZN,88.25,2.5,35.300,2.833E-002,3.339,62.458,0.000,0.000,0.000,0.000,65.796,No
 Zone Internal Gains Nominal, G SW APARTMENT ZN,88.25,2.5,35.300,2.833E-002,3.339,62.458,0.000,0.000,0.000,0.000,65.796,No
 Zone Internal Gains Nominal, M CORRIDOR ZN,77.66,0.0,N/A,0.000,6.710,0.000,0.000,0.000,0.000,0.000,6.710,No
 Zone Internal Gains Nominal, M N1 APARTMENT ZN,88.25,2.5,35.300,2.833E-002,3.339,62.458,0.000,0.000,0.000,0.000,65.796,No
 Zone Internal Gains Nominal, M N2 APARTMENT ZN,88.25,2.5,35.300,2.833E-002,3.339,62.458,0.000,0.000,0.000,0.000,65.796,No
 Zone Internal Gains Nominal, M NE APARTMENT ZN,88.25,2.5,35.300,2.833E-002,3.339,62.458,0.000,0.000,0.000,0.000,65.796,No
 Zone Internal Gains Nominal, M NW APARTMENT ZN,88.25,2.5,35.300,2.833E-002,3.339,62.458,0.000,0.000,0.000,0.000,65.796,No
 Zone Internal Gains Nominal, M S1 APARTMENT ZN,88.25,2.5,35.300,2.833E-002,3.339,62.458,0.000,0.000,0.000,0.000,65.796,No
 Zone Internal Gains Nominal, M S2 APARTMENT ZN,88.25,2.5,35.300,2.833E-002,3.339,62.458,0.000,0.000,0.000,0.000,65.796,No
 Zone Internal Gains Nominal, M SE APARTMENT ZN,88.25,2.5,35.300,2.833E-002,3.339,62.458,0.000,0.000,0.000,0.000,65.796,No
 Zone Internal Gains Nominal, M SW APARTMENT ZN,88.25,2.5,35.300,2.833E-002,3.339,62.458,0.000,0.000,0.000,0.000,65.796,No
 Zone Internal Gains Nominal, OFFICE ZN,88.25,1.0,88.249,1.133E-002,21.500,5.800,0.000,0.000,0.000,0.000,27.300,No
 Zone Internal Gains Nominal, T CORRIDOR ZN,77.66,0.0,N/A,0.000,6.390,0.000,0.000,0.000,0.000,0.000,6.390,No
 Zone Internal Gains Nominal, T N1 APARTMENT ZN,88.25,2.5,35.300,2.833E-002,3.339,62.458,0.000,0.000,0.000,0.000,65.796,No
 Zone Internal Gains Nominal, T N2 APARTMENT ZN,88.25,2.5,35.300,2.833E-002,3.339,62.458,0.000,0.000,0.000,0.000,65.796,No
 Zone Internal Gains Nominal, T NE APARTMENT ZN,88.25,2.5,35.300,2.833E-002,3.339,62.458,0.000,0.000,0.000,0.000,65.796,No
 Zone Internal Gains Nominal, T NW APARTMENT ZN,88.25,2.5,35.300,2.833E-002,3.339,62.458,0.000,0.000,0.000,0.000,65.796,No
 Zone Internal Gains Nominal, T S1 APARTMENT ZN,88.25,2.5,35.300,2.833E-002,3.339,62.458,0.000,0.000,0.000,0.000,65.796,No
 Zone Internal Gains Nominal, T S2 APARTMENT ZN,88.25,2.5,35.300,2.833E-002,3.339,62.458,0.000,0.000,0.000,0.000,65.796,No
 Zone Internal Gains Nominal, T SE APARTMENT ZN,88.25,2.5,35.300,2.833E-002,3.339,62.458,0.000,0.000,0.000,0.000,65.796,No
 Zone Internal Gains Nominal, T SW APARTMENT ZN,88.25,2.5,35.300,2.833E-002,3.339,62.458,0.000,0.000,0.000,0.000,65.796,No
! <People Internal Gains Nominal>,Name,Schedule Name,Zone Name,Zone Floor Area {m2},# Zone Occupants,Number of People {},People/Floor Area {person/m2},Floor Area per person {m2/person},Fraction Radiant,Fraction Convected,Sensible Fraction Calculation,Activity level,ASHRAE 55 Warnings,Carbon Dioxide Generation Rate,Nominal Minimum Number of People,Nominal Maximum Number of People
 People Internal Gains Nominal, G N1 APARTMENT ZN MIDRISEAPARTMENT APARTMENT PEOPLE,APARTMENTMIDRISE OCC_APT_SCH,G N1 APARTMENT ZN,88.25,2.5,2.5,2.833E-002,35.300,0.300,0.700,AutoCalculate,APARTMENTMIDRISE ACTIVITY SCHEDULE,No,3.8200E-008,1,3
 People Internal Gains Nominal, G N2 APARTMENT ZN MIDRISEAPARTMENT APARTMENT PEOPLE,APARTMENTMIDRISE OCC_APT_SCH,G N2 APARTMENT ZN,88.25,2.5,2.5,2.833E-002,35.300,0.300,0.700,AutoCalculate,APARTMENTMIDRISE ACTIVITY SCHEDULE,No,3.8200E-008,1,3
 People Internal Gains Nominal, G NE APARTMENT ZN MIDRISEAPARTMENT APARTMENT PEOPLE,APARTMENTMIDRISE OCC_APT_SCH,G NE APARTMENT ZN,88.25,2.5,2.5,2.833E-002,35.300,0.300,0.700,AutoCalculate,APARTMENTMIDRISE ACTIVITY SCHEDULE,No,3.8200E-008,1,3
 People Internal Gains Nominal, G NW APARTMENT ZN MIDRISEAPARTMENT APARTMENT PEOPLE,APARTMENTMIDRISE OCC_APT_SCH,G NW APARTMENT ZN,88.25,2.5,2.5,2.833E-002,35.300,0.300,0.700,AutoCalculate,APARTMENTMIDRISE ACTIVITY SCHEDULE,No,3.8200E-008,1,3
 People Internal Gains Nominal, G S1 APARTMENT ZN MIDRISEAPARTMENT APARTMENT PEOPLE,APARTMENTMIDRISE OCC_APT_SCH,G S1 APARTMENT ZN,88.25,2.5,2.5,2.833E-002,35.300,0.300,0.700,AutoCalculate,APARTMENTMIDRISE ACTIVITY SCHEDULE,No,3.8200E-008,1,3
 People Internal Gains Nominal, G S2 APARTMENT ZN MIDRISEAPARTMENT APARTMENT PEOPLE,APARTMENTMIDRISE OCC_APT_SCH,G S2 APARTMENT ZN,88.25,2.5,2.5,2.833E-002,35.300,0.300,0.700,AutoCalculate,APARTMENTMIDRISE ACTIVITY SCHEDULE,No,3.8200E-008,1,3
 People Internal Gains Nominal, G SW APARTMENT ZN MIDRISEAPARTMENT APARTMENT PEOPLE,APARTMENTMIDRISE OCC_APT_SCH,G SW APARTMENT ZN,88.25,2.5,2.5,2.833E-002,35.300,0.300,0.700,AutoCalculate,APARTMENTMIDRISE ACTIVITY SCHEDULE,No,3.8200E-008,1,3
 People Internal Gains Nominal, M N1 APARTMENT ZN MIDRISEAPARTMENT APARTMENT PEOPLE,APARTMENTMIDRISE OCC_APT_SCH,M N1 APARTMENT ZN,88.25,2.5,2.5,2.833E-002,35.300,0.300,0.700,AutoCalculate,APARTMENTMIDRISE ACTIVITY SCHEDULE,No,3.8200E-008,1,3
 People Internal Gains Nominal, M N2 APARTMENT ZN MIDRISEAPARTMENT APARTMENT PEOPLE,APARTMENTMIDRISE OCC_APT_SCH,M N2 APARTMENT ZN,88.25,2.5,2.5,2.833E-002,35.300,0.300,0.700,AutoCalculate,APARTMENTMIDRISE ACTIVITY SCHEDULE,No,3.8200E-008,1,3
 People Internal Gains Nominal, M NE APARTMENT ZN MIDRISEAPARTMENT APARTMENT PEOPLE,APARTMENTMIDRISE OCC_APT_SCH,M NE APARTMENT ZN,88.25,2.5,2.5,2.833E-002,35.300,0.300,0.700,AutoCalculate,APARTMENTMIDRISE ACTIVITY SCHEDULE,No,3.8200E-008,1,3
 People Internal Gains Nominal, M NW APARTMENT ZN MIDRISEAPARTMENT APARTMENT PEOPLE,APARTMENTMIDRISE OCC_APT_SCH,M NW APARTMENT ZN,88.25,2.5,2.5,2.833E-002,35.300,0.300,0.700,AutoCalculate,APARTMENTMIDRISE ACTIVITY SCHEDULE,No,3.8200E-008,1,3
 People Internal Gains Nominal, M S1 APARTMENT ZN MIDRISEAPARTMENT APARTMENT PEOPLE,APARTMENTMIDRISE OCC_APT_SCH,M S1 APARTMENT ZN,88.25,2.5,2.5,2.833E-002,35.300,0.300,0.700,AutoCalculate,APARTMENTMIDRISE ACTIVITY SCHEDULE,No,3.8200E-008,1,3
 People Internal Gains Nominal, M S2 APARTMENT ZN MIDRISEAPARTMENT APARTMENT PEOPLE,APARTMENTMIDRISE OCC_APT_SCH,M S2 APARTMENT ZN,88.25,2.5,2.5,2.833E-002,35.300,0.300,0.700,AutoCalculate,APARTMENTMIDRISE ACTIVITY SCHEDULE,No,3.8200E-008,1,3
 People Internal Gains Nominal, M SE APARTMENT ZN MIDRISEAPARTMENT APARTMENT PEOPLE,APARTMENTMIDRISE OCC_APT_SCH,M SE APARTMENT ZN,88.25,2.5,2.5,2.833E-002,35.300,0.300,0.700,AutoCalculate,APARTMENTMIDRISE ACTIVITY SCHEDULE,No,3.8200E-008,1,3
 People Internal Gains Nominal, M SW APARTMENT ZN MIDRISEAPARTMENT APARTMENT PEOPLE,APARTMENTMIDRISE OCC_APT_SCH,M SW APARTMENT ZN,88.25,2.5,2.5,2.833E-002,35.300,0.300,0.700,AutoCalculate,APARTMENTMIDRISE ACTIVITY SCHEDULE,No,3.8200E-008,1,3
 People Internal Gains Nominal, T N1 APARTMENT ZN MIDRISEAPARTMENT APARTMENT_TOPFLOOR_NS PEOPLE,APARTMENTMIDRISE OCC_APT_SCH,T N1 APARTMENT ZN,88.25,2.5,2.5,2.833E-002,35.300,0.300,0.700,AutoCalculate,APARTMENTMIDRISE ACTIVITY SCHEDULE,No,3.8200E-008,1,3
 People Internal Gains Nominal, T N2 APARTMENT ZN MIDRISEAPARTMENT APARTMENT_TOPFLOOR_NS PEOPLE,APARTMENTMIDRISE OCC_APT_SCH,T N2 APARTMENT ZN,88.25,2.5,2.5,2.833E-002,35.300,0.300,0.700,AutoCalculate,APARTMENTMIDRISE ACTIVITY SCHEDULE,No,3.8200E-008,1,3
 People Internal Gains Nominal, T S1 APARTMENT ZN MIDRISEAPARTMENT APARTMENT_TOPFLOOR_NS PEOPLE,APARTMENTMIDRISE OCC_APT_SCH,T S1 APARTMENT ZN,88.25,2.5,2.5,2.833E-002,35.300,0.300,0.700,AutoCalculate,APARTMENTMIDRISE ACTIVITY SCHEDULE,No,3.8200E-008,1,3
 People Internal Gains Nominal, T S2 APARTMENT ZN MIDRISEAPARTMENT APARTMENT_TOPFLOOR_NS PEOPLE,APARTMENTMIDRISE OCC_APT_SCH,T S2 APARTMENT ZN,88.25,2.5,2.5,2.833E-002,35.300,0.300,0.700,AutoCalculate,APARTMENTMIDRISE ACTIVITY SCHEDULE,No,3.8200E-008,1,3
 People Internal Gains Nominal, T NE APARTMENT ZN MIDRISEAPARTMENT APARTMENT_TOPFLOOR_WE PEOPLE,APARTMENTMIDRISE OCC_APT_SCH,T NE APARTMENT ZN,88.25,2.5,2.5,2.833E-002,35.300,0.300,0.700,AutoCalculate,APARTMENTMIDRISE ACTIVITY SCHEDULE,No,3.8200E-008,1,3
 People Internal Gains Nominal, T NW APARTMENT ZN MIDRISEAPARTMENT APARTMENT_TOPFLOOR_WE PEOPLE,APARTMENTMIDRISE OCC_APT_SCH,T NW APARTMENT ZN,88.25,2.5,2.5,2.833E-002,35.300,0.300,0.700,AutoCalculate,APARTMENTMIDRISE ACTIVITY SCHEDULE,No,3.8200E-008,1,3
 People Internal Gains Nominal, T SE APARTMENT ZN MIDRISEAPARTMENT APARTMENT_TOPFLOOR_WE PEOPLE,APARTMENTMIDRISE OCC_APT_SCH,T SE APARTMENT ZN,88.25,2.5,2.5,2.833E-002,35.300,0.300,0.700,AutoCalculate,APARTMENTMIDRISE ACTIVITY SCHEDULE,No,3.8200E-008,1,3
 People Internal Gains Nominal, T SW APARTMENT ZN MIDRISEAPARTMENT APARTMENT_TOPFLOOR_WE PEOPLE,APARTMENTMIDRISE OCC_APT_SCH,T SW APARTMENT ZN,88.25,2.5,2.5,2.833E-002,35.300,0.300,0.700,AutoCalculate,APARTMENTMIDRISE ACTIVITY SCHEDULE,No,3.8200E-008,1,3
 People Internal Gains Nominal, OFFICE ZN MIDRISEAPARTMENT OFFICE PEOPLE,APARTMENTMIDRISE OCC_OFF_SCH,OFFICE ZN,88.25,1.0,1.0,1.133E-002,88.249,0.300,0.700,AutoCalculate,APARTMENTMIDRISE ACTIVITY SCHEDULE,No,3.8200E-008,0,1
! <Lights Internal Gains Nominal>,Name,Schedule Name,Zone Name,Zone Floor Area {m2},# Zone Occupants,Lighting Level {W},Lights/Floor Area {W/m2},Lights per person {W/person},Fraction Return Air,Fraction Radiant,Fraction Short Wave,Fraction Convected,Fraction Replaceable,End-Use Category,Nominal Minimum Lighting Level {W},Nominal Maximum Lighting Level {W}
 Lights Internal Gains Nominal, G N1 APARTMENT ZN MIDRISEAPARTMENT APARTMENT ADDITIONAL LIGHTS,APARTMENTMIDRISE LTG_APT_SCH,G N1 APARTMENT ZN,88.25,2.5,85.492,0.969,34.197,0.000,0.000,0.000,1.000,1.000,General,1.710,27.357
 Lights Internal Gains Nominal, G N2 APARTMENT ZN MIDRISEAPARTMENT APARTMENT ADDITIONAL LIGHTS,APARTMENTMIDRISE LTG_APT_SCH,G N2 APARTMENT ZN,88.25,2.5,85.492,0.969,34.197,0.000,0.000,0.000,1.000,1.000,General,1.710,27.357
 Lights Internal Gains Nominal, G NE APARTMENT ZN MIDRISEAPARTMENT APARTMENT ADDITIONAL LIGHTS,APARTMENTMIDRISE LTG_APT_SCH,G NE APARTMENT ZN,88.25,2.5,85.492,0.969,34.197,0.000,0.000,0.000,1.000,1.000,General,1.710,27.357
 Lights Internal Gains Nominal, G NW APARTMENT ZN MIDRISEAPARTMENT APARTMENT ADDITIONAL LIGHTS,APARTMENTMIDRISE LTG_APT_SCH,G NW APARTMENT ZN,88.25,2.5,85.492,0.969,34.197,0.000,0.000,0.000,1.000,1.000,General,1.710,27.357
 Lights Internal Gains Nominal, G S1 APARTMENT ZN MIDRISEAPARTMENT APARTMENT ADDITIONAL LIGHTS,APARTMENTMIDRISE LTG_APT_SCH,G S1 APARTMENT ZN,88.25,2.5,85.492,0.969,34.197,0.000,0.000,0.000,1.000,1.000,General,1.710,27.357
 Lights Internal Gains Nominal, G S2 APARTMENT ZN MIDRISEAPARTMENT APARTMENT ADDITIONAL LIGHTS,APARTMENTMIDRISE LTG_APT_SCH,G S2 APARTMENT ZN,88.25,2.5,85.492,0.969,34.197,0.000,0.000,0.000,1.000,1.000,General,1.710,27.357
 Lights Internal Gains Nominal, G SW APARTMENT ZN MIDRISEAPARTMENT APARTMENT ADDITIONAL LIGHTS,APARTMENTMIDRISE LTG_APT_SCH,G SW APARTMENT ZN,88.25,2.5,85.492,0.969,34.197,0.000,0.000,0.000,1.000,1.000,General,1.710,27.357
 Lights Internal Gains Nominal, M N1 APARTMENT ZN MIDRISEAPARTMENT APARTMENT ADDITIONAL LIGHTS,APARTMENTMIDRISE LTG_APT_SCH,M N1 APARTMENT ZN,88.25,2.5,85.492,0.969,34.197,0.000,0.000,0.000,1.000,1.000,General,1.710,27.357
 Lights Internal Gains Nominal, M N2 APARTMENT ZN MIDRISEAPARTMENT APARTMENT ADDITIONAL LIGHTS,APARTMENTMIDRISE LTG_APT_SCH,M N2 APARTMENT ZN,88.25,2.5,85.492,0.969,34.197,0.000,0.000,0.000,1.000,1.000,General,1.710,27.357
 Lights Internal Gains Nominal, M NE APARTMENT ZN MIDRISEAPARTMENT APARTMENT ADDITIONAL LIGHTS,APARTMENTMIDRISE LTG_APT_SCH,M NE APARTMENT ZN,88.25,2.5,85.492,0.969,34.197,0.000,0.000,0.000,1.000,1.000,General,1.710,27.357
 Lights Internal Gains Nominal, M NW APARTMENT ZN MIDRISEAPARTMENT APARTMENT ADDITIONAL LIGHTS,APARTMENTMIDRISE LTG_APT_SCH,M NW APARTMENT ZN,88.25,2.5,85.492,0.969,34.197,0.000,0.000,0.000,1.000,1.000,General,1.710,27.357
 Lights Internal Gains Nominal, M S1 APARTMENT ZN MIDRISEAPARTMENT APARTMENT ADDITIONAL LIGHTS,APARTMENTMIDRISE LTG_APT_SCH,M S1 APARTMENT ZN,88.25,2.5,85.492,0.969,34.197,0.000,0.000,0.000,1.000,1.000,General,1.710,27.357
 Lights Internal Gains Nominal, M S2 APARTMENT ZN MIDRISEAPARTMENT APARTMENT ADDITIONAL LIGHTS,APARTMENTMIDRISE LTG_APT_SCH,M S2 APARTMENT ZN,88.25,2.5,85.492,0.969,34.197,0.000,0.000,0.000,1.000,1.000,General,1.710,27.357
 Lights Internal Gains Nominal, M SE APARTMENT ZN MIDRISEAPARTMENT APARTMENT ADDITIONAL LIGHTS,APARTMENTMIDRISE LTG_APT_SCH,M SE APARTMENT ZN,88.25,2.5,85.492,0.969,34.197,0.000,0.000,0.000,1.000,1.000,General,1.710,27.357
 Lights Internal Gains Nominal, M SW APARTMENT ZN MIDRISEAPARTMENT APARTMENT ADDITIONAL LIGHTS,APARTMENTMIDRISE LTG_APT_SCH,M SW APARTMENT ZN,88.25,2.5,85.492,0.969,34.197,0.000,0.000,0.000,1.000,1.000,General,1.710,27.357
 Lights Internal Gains Nominal, G N1 APARTMENT ZN MIDRISEAPARTMENT APARTMENT LIGHTS,APARTMENTMIDRISE LTG_APT_SCH,G N1 APARTMENT ZN,88.25,2.5,209.151,2.370,83.660,0.000,0.000,0.000,1.000,1.000,General,4.183,66.928
 Lights Internal Gains Nominal, G N2 APARTMENT ZN MIDRISEAPARTMENT APARTMENT LIGHTS,APARTMENTMIDRISE LTG_APT_SCH,G N2 APARTMENT ZN,88.25,2.5,209.151,2.370,83.660,0.000,0.000,0.000,1.000,1.000,General,4.183,66.928
 Lights Internal Gains Nominal, G NE APARTMENT ZN MIDRISEAPARTMENT APARTMENT LIGHTS,APARTMENTMIDRISE LTG_APT_SCH,G NE APARTMENT ZN,88.25,2.5,209.151,2.370,83.660,0.000,0.000,0.000,1.000,1.000,General,4.183,66.928
 Lights Internal Gains Nominal, G NW APARTMENT ZN MIDRISEAPARTMENT APARTMENT LIGHTS,APARTMENTMIDRISE LTG_APT_SCH,G NW APARTMENT ZN,88.25,2.5,209.151,2.370,83.660,0.000,0.000,0.000,1.000,1.000,General,4.183,66.928
 Lights Internal Gains Nominal, G S1 APARTMENT ZN MIDRISEAPARTMENT APARTMENT LIGHTS,APARTMENTMIDRISE LTG_APT_SCH,G S1 APARTMENT ZN,88.25,2.5,209.151,2.370,83.660,0.000,0.000,0.000,1.000,1.000,General,4.183,66.928
 Lights Internal Gains Nominal, G S2 APARTMENT ZN MIDRISEAPARTMENT APARTMENT LIGHTS,APARTMENTMIDRISE LTG_APT_SCH,G S2 APARTMENT ZN,88.25,2.5,209.151,2.370,83.660,0.000,0.000,0.000,1.000,1.000,General,4.183,66.928
 Lights Internal Gains Nominal, G SW APARTMENT ZN MIDRISEAPARTMENT APARTMENT LIGHTS,APARTMENTMIDRISE LTG_APT_SCH,G SW APARTMENT ZN,88.25,2.5,209.151,2.370,83.660,0.000,0.000,0.000,1.000,1.000,General,4.183,66.928
 Lights Internal Gains Nominal, M N1 APARTMENT ZN MIDRISEAPARTMENT APARTMENT LIGHTS,APARTMENTMIDRISE LTG_APT_SCH,M N1 APARTMENT ZN,88.25,2.5,209.151,2.370,83.660,0.000,0.000,0.000,1.000,1.000,General,4.183,66.928
 Lights Internal Gains Nominal, M N2 APARTMENT ZN MIDRISEAPARTMENT APARTMENT LIGHTS,APARTMENTMIDRISE LTG_APT_SCH,M N2 APARTMENT ZN,88.25,2.5,209.151,2.370,83.660,0.000,0.000,0.000,1.000,1.000,General,4.183,66.928
 Lights Internal Gains Nominal, M NE APARTMENT ZN MIDRISEAPARTMENT APARTMENT LIGHTS,APARTMENTMIDRISE LTG_APT_SCH,M NE APARTMENT ZN,88.25,2.5,209.151,2.370,83.660,0.000,0.000,0.000,1.000,1.000,General,4.183,66.928
 Lights Internal Gains Nominal, M NW APARTMENT ZN MIDRISEAPARTMENT APARTMENT LIGHTS,APARTMENTMIDRISE LTG_APT_SCH,M NW APARTMENT ZN,88.25,2.5,209.151,2.370,83.660,0.000,0.000,0.000,1.000,1.000,General,4.183,66.928
 Lights Internal Gains Nominal, M S1 APARTMENT ZN MIDRISEAPARTMENT APARTMENT LIGHTS,APARTMENTMIDRISE LTG_APT_SCH,M S1 APARTMENT ZN,88.25,2.5,209.151,2.370,83.660,0.000,0.000,0.000,1.000,1.000,General,4.183,66.928
 Lights Internal Gains Nominal, M S2 APARTMENT ZN MIDRISEAPARTMENT APARTMENT LIGHTS,APARTMENTMIDRISE LTG_APT_SCH,M S2 APARTMENT ZN,88.25,2.5,209.151,2.370,83.660,0.000,0.000,0.000,1.000,1.000,General,4.183,66.928
 Lights Internal Gains Nominal, M SE APARTMENT ZN MIDRISEAPARTMENT APARTMENT LIGHTS,APARTMENTMIDRISE LTG_APT_SCH,M SE APARTMENT ZN,88.25,2.5,209.151,2.370,83.660,0.000,0.000,0.000,1.000,1.000,General,4.183,66.928
 Lights Internal Gains Nominal, M SW APARTMENT ZN MIDRISEAPARTMENT APARTMENT LIGHTS,APARTMENTMIDRISE LTG_APT_SCH,M SW APARTMENT ZN,88.25,2.5,209.151,2.370,83.660,0.000,0.000,0.000,1.000,1.000,General,4.183,66.928
 Lights Internal Gains Nominal, T N1 APARTMENT ZN MIDRISEAPARTMENT APARTMENT_TOPFLOOR_NS ADDITIONAL LIGHTS,APARTMENTMIDRISE LTG_APT_SCH,T N1 APARTMENT ZN,88.25,2.5,85.492,0.969,34.197,0.000,0.000,0.000,1.000,1.000,General,1.710,27.357
 Lights Internal Gains Nominal, T N2 APARTMENT ZN MIDRISEAPARTMENT APARTMENT_TOPFLOOR_NS ADDITIONAL LIGHTS,APARTMENTMIDRISE LTG_APT_SCH,T N2 APARTMENT ZN,88.25,2.5,85.492,0.969,34.197,0.000,0.000,0.000,1.000,1.000,General,1.710,27.357
 Lights Internal Gains Nominal, T S1 APARTMENT ZN MIDRISEAPARTMENT APARTMENT_TOPFLOOR_NS ADDITIONAL LIGHTS,APARTMENTMIDRISE LTG_APT_SCH,T S1 APARTMENT ZN,88.25,2.5,85.492,0.969,34.197,0.000,0.000,0.000,1.000,1.000,General,1.710,27.357
 Lights Internal Gains Nominal, T S2 APARTMENT ZN MIDRISEAPARTMENT APARTMENT_TOPFLOOR_NS ADDITIONAL LIGHTS,APARTMENTMIDRISE LTG_APT_SCH,T S2 APARTMENT ZN,88.25,2.5,85.492,0.969,34.197,0.000,0.000,0.000,1.000,1.000,General,1.710,27.357
 Lights Internal Gains Nominal, T N1 APARTMENT ZN MIDRISEAPARTMENT APARTMENT_TOPFLOOR_NS LIGHTS,APARTMENTMIDRISE LTG_APT_SCH,T N1 APARTMENT ZN,88.25,2.5,209.151,2.370,83.660,0.000,0.000,0.000,1.000,1.000,General,4.183,66.928
 Lights Internal Gains Nominal, T N2 APARTMENT ZN MIDRISEAPARTMENT APARTMENT_TOPFLOOR_NS LIGHTS,APARTMENTMIDRISE LTG_APT_SCH,T N2 APARTMENT ZN,88.25,2.5,209.151,2.370,83.660,0.000,0.000,0.000,1.000,1.000,General,4.183,66.928
 Lights Internal Gains Nominal, T S1 APARTMENT ZN MIDRISEAPARTMENT APARTMENT_TOPFLOOR_NS LIGHTS,APARTMENTMIDRISE LTG_APT_SCH,T S1 APARTMENT ZN,88.25,2.5,209.151,2.370,83.660,0.000,0.000,0.000,1.000,1.000,General,4.183,66.928
 Lights Internal Gains Nominal, T S2 APARTMENT ZN MIDRISEAPARTMENT APARTMENT_TOPFLOOR_NS LIGHTS,APARTMENTMIDRISE LTG_APT_SCH,T S2 APARTMENT ZN,88.25,2.5,209.151,2.370,83.660,0.000,0.000,0.000,1.000,1.000,General,4.183,66.928
 Lights Internal Gains Nominal, T NE APARTMENT ZN MIDRISEAPARTMENT APARTMENT_TOPFLOOR_WE ADDITIONAL LIGHTS,APARTMENTMIDRISE LTG_APT_SCH,T NE APARTMENT ZN,88.25,2.5,85.492,0.969,34.197,0.000,0.000,0.000,1.000,1.000,General,1.710,27.357
 Lights Internal Gains Nominal, T NW APARTMENT ZN MIDRISEAPARTMENT APARTMENT_TOPFLOOR_WE ADDITIONAL LIGHTS,APARTMENTMIDRISE LTG_APT_SCH,T NW APARTMENT ZN,88.25,2.5,85.492,0.969,34.197,0.000,0.000,0.000,1.000,1.000,General,1.710,27.357
 Lights Internal Gains Nominal, T SE APARTMENT ZN MIDRISEAPARTMENT APARTMENT_TOPFLOOR_WE ADDITIONAL LIGHTS,APARTMENTMIDRISE LTG_APT_SCH,T SE APARTMENT ZN,88.25,2.5,85.492,0.969,34.197,0.000,0.000,0.000,1.000,1.000,General,1.710,27.357
 Lights Internal Gains Nominal, T SW APARTMENT ZN MIDRISEAPARTMENT APARTMENT_TOPFLOOR_WE ADDITIONAL LIGHTS,APARTMENTMIDRISE LTG_APT_SCH,T SW APARTMENT ZN,88.25,2.5,85.492,0.969,34.197,0.000,0.000,0.000,1.000,1.000,General,1.710,27.357
 Lights Internal Gains Nominal, T NE APARTMENT ZN MIDRISEAPARTMENT APARTMENT_TOPFLOOR_WE LIGHTS,APARTMENTMIDRISE LTG_APT_SCH,T NE APARTMENT ZN,88.25,2.5,209.151,2.370,83.660,0.000,0.000,0.000,1.000,1.000,General,4.183,66.928
 Lights Internal Gains Nominal, T NW APARTMENT ZN MIDRISEAPARTMENT APARTMENT_TOPFLOOR_WE LIGHTS,APARTMENTMIDRISE LTG_APT_SCH,T NW APARTMENT ZN,88.25,2.5,209.151,2.370,83.660,0.000,0.000,0.000,1.000,1.000,General,4.183,66.928
 Lights Internal Gains Nominal, T SE APARTMENT ZN MIDRISEAPARTMENT APARTMENT_TOPFLOOR_WE LIGHTS,APARTMENTMIDRISE LTG_APT_SCH,T SE APARTMENT ZN,88.25,2.5,209.151,2.370,83.660,0.000,0.000,0.000,1.000,1.000,General,4.183,66.928
 Lights Internal Gains Nominal, T SW APARTMENT ZN MIDRISEAPARTMENT APARTMENT_TOPFLOOR_WE LIGHTS,APARTMENTMIDRISE LTG_APT_SCH,T SW APARTMENT ZN,88.25,2.5,209.151,2.370,83.660,0.000,0.000,0.000,1.000,1.000,General,4.183,66.928
 Lights Internal Gains Nominal, G CORRIDOR ZN MIDRISEAPARTMENT CORRIDOR LIGHTS,APARTMENTMIDRISE LTG_COR_SCH_2013,G CORRIDOR ZN,77.66,0.0,521.094,6.710,N/A,0.000,0.000,0.000,1.000,1.000,General,276.930,276.930
 Lights Internal Gains Nominal, M CORRIDOR ZN MIDRISEAPARTMENT CORRIDOR LIGHTS,APARTMENTMIDRISE LTG_COR_SCH_2013,M CORRIDOR ZN,77.66,0.0,521.094,6.710,N/A,0.000,0.000,0.000,1.000,1.000,General,276.930,276.930
 Lights Internal Gains Nominal, T CORRIDOR ZN MIDRISEAPARTMENT CORRIDOR_TOPFLOOR LIGHTS,APARTMENTMIDRISE LTG_COR_SCH_2013,T CORRIDOR ZN,77.66,0.0,496.243,6.390,N/A,0.000,0.000,0.000,1.000,1.000,General,263.724,263.724
 Lights Internal Gains Nominal, OFFICE ZN MIDRISEAPARTMENT OFFICE ADDITIONAL LIGHTS,APARTMENTMIDRISE LTG_OFF_SCH_2013,OFFICE ZN,88.25,1.0,948.680,10.750,948.680,0.000,0.000,0.000,1.000,1.000,General,0.000,948.680
 Lights Internal Gains Nominal, OFFICE ZN MIDRISEAPARTMENT OFFICE LIGHTS,APARTMENTMIDRISE LTG_OFF_SCH_2013,OFFICE ZN,88.25,1.0,948.680,10.750,948.680,0.000,0.000,0.000,1.000,1.000,General,0.000,948.680
! <ElectricEquipment Internal Gains Nominal>,Name,Schedule Name,Zone Name,Zone Floor Area {m2},# Zone Occupants,Equipment Level {W},Equipment/Floor Area {W/m2},Equipment per person {W/person},Fraction Latent,Fraction Radiant,Fraction Lost,Fraction Convected,End-Use SubCategory,Nominal Minimum Equipment Level {W},Nominal Maximum Equipment Level {W}
 ElectricEquipment Internal Gains Nominal, ELEVATORS_LIGHTS_FAN,APARTMENTMIDRISE ELEV_LIGHT_FAN_SCH_ADD_DF,G CORRIDOR ZN,77.66,0.0,63.000,0.811,N/A,0.000,0.000,0.950,5.000E-002,General,3.150,31.500
 ElectricEquipment Internal Gains Nominal, G CORRIDOR_ELEVATORS_EQUIP,APARTMENTMIDRISE BLDG_ELEVATORS,G CORRIDOR ZN,77.66,0.0,450.424,5.800,N/A,0.000,0.000,0.950,5.000E-002,General,22.521,225.212
 ElectricEquipment Internal Gains Nominal, G N1 APARTMENT ZN MIDRISEAPARTMENT APARTMENT ELEC EQUIP,APARTMENTMIDRISE EQP_APT_SCH,G N1 APARTMENT ZN,88.25,2.5,511.846,5.800,204.738,0.000,0.500,0.000,0.500,General,194.501,511.846
 ElectricEquipment Internal Gains Nominal, G N2 APARTMENT ZN MIDRISEAPARTMENT APARTMENT ELEC EQUIP,APARTMENTMIDRISE EQP_APT_SCH,G N2 APARTMENT ZN,88.25,2.5,511.846,5.800,204.738,0.000,0.500,0.000,0.500,General,194.501,511.846
 ElectricEquipment Internal Gains Nominal, G NE APARTMENT ZN MIDRISEAPARTMENT APARTMENT ELEC EQUIP,APARTMENTMIDRISE EQP_APT_SCH,G NE APARTMENT ZN,88.25,2.5,511.846,5.800,204.738,0.000,0.500,0.000,0.500,General,194.501,511.846
 ElectricEquipment Internal Gains Nominal, G NW APARTMENT ZN MIDRISEAPARTMENT APARTMENT ELEC EQUIP,APARTMENTMIDRISE EQP_APT_SCH,G NW APARTMENT ZN,88.25,2.5,511.846,5.800,204.738,0.000,0.500,0.000,0.500,General,194.501,511.846
 ElectricEquipment Internal Gains Nominal, G S1 APARTMENT ZN MIDRISEAPARTMENT APARTMENT ELEC EQUIP,APARTMENTMIDRISE EQP_APT_SCH,G S1 APARTMENT ZN,88.25,2.5,511.846,5.800,204.738,0.000,0.500,0.000,0.500,General,194.501,511.846
 ElectricEquipment Internal Gains Nominal, G S2 APARTMENT ZN MIDRISEAPARTMENT APARTMENT ELEC EQUIP,APARTMENTMIDRISE EQP_APT_SCH,G S2 APARTMENT ZN,88.25,2.5,511.846,5.800,204.738,0.000,0.500,0.000,0.500,General,194.501,511.846
 ElectricEquipment Internal Gains Nominal, G SW APARTMENT ZN MIDRISEAPARTMENT APARTMENT ELEC EQUIP,APARTMENTMIDRISE EQP_APT_SCH,G SW APARTMENT ZN,88.25,2.5,511.846,5.800,204.738,0.000,0.500,0.000,0.500,General,194.501,511.846
 ElectricEquipment Internal Gains Nominal, M N1 APARTMENT ZN MIDRISEAPARTMENT APARTMENT ELEC EQUIP,APARTMENTMIDRISE EQP_APT_SCH,M N1 APARTMENT ZN,88.25,2.5,511.846,5.800,204.738,0.000,0.500,0.000,0.500,General,194.501,511.846
 ElectricEquipment Internal Gains Nominal, M N2 APARTMENT ZN MIDRISEAPARTMENT APARTMENT ELEC EQUIP,APARTMENTMIDRISE EQP_APT_SCH,M N2 APARTMENT ZN,88.25,2.5,511.846,5.800,204.738,0.000,0.500,0.000,0.500,General,194.501,511.846
 ElectricEquipment Internal Gains Nominal, M NE APARTMENT ZN MIDRISEAPARTMENT APARTMENT ELEC EQUIP,APARTMENTMIDRISE EQP_APT_SCH,M NE APARTMENT ZN,88.25,2.5,511.846,5.800,204.738,0.000,0.500,0.000,0.500,General,194.501,511.846
 ElectricEquipment Internal Gains Nominal, M NW APARTMENT ZN MIDRISEAPARTMENT APARTMENT ELEC EQUIP,APARTMENTMIDRISE EQP_APT_SCH,M NW APARTMENT ZN,88.25,2.5,511.846,5.800,204.738,0.000,0.500,0.000,0.500,General,194.501,511.846
 ElectricEquipment Internal Gains Nominal, M S1 APARTMENT ZN MIDRISEAPARTMENT APARTMENT ELEC EQUIP,APARTMENTMIDRISE EQP_APT_SCH,M S1 APARTMENT ZN,88.25,2.5,511.846,5.800,204.738,0.000,0.500,0.000,0.500,General,194.501,511.846
 ElectricEquipment Internal Gains Nominal, M S2 APARTMENT ZN MIDRISEAPARTMENT APARTMENT ELEC EQUIP,APARTMENTMIDRISE EQP_APT_SCH,M S2 APARTMENT ZN,88.25,2.5,511.846,5.800,204.738,0.000,0.500,0.000,0.500,General,194.501,511.846
 ElectricEquipment Internal Gains Nominal, M SE APARTMENT ZN MIDRISEAPARTMENT APARTMENT ELEC EQUIP,APARTMENTMIDRISE EQP_APT_SCH,M SE APARTMENT ZN,88.25,2.5,511.846,5.800,204.738,0.000,0.500,0.000,0.500,General,194.501,511.846
 ElectricEquipment Internal Gains Nominal, M SW APARTMENT ZN MIDRISEAPARTMENT APARTMENT ELEC EQUIP,APARTMENTMIDRISE EQP_APT_SCH,M SW APARTMENT ZN,88.25,2.5,511.846,5.800,204.738,0.000,0.500,0.000,0.500,General,194.501,511.846
 ElectricEquipment Internal Gains Nominal, T N1 APARTMENT ZN MIDRISEAPARTMENT APARTMENT_TOPFLOOR_NS ELEC EQUIP,APARTMENTMIDRISE EQP_APT_SCH,T N1 APARTMENT ZN,88.25,2.5,511.846,5.800,204.738,0.000,0.500,0.000,0.500,General,194.501,511.846
 ElectricEquipment Internal Gains Nominal, T N2 APARTMENT ZN MIDRISEAPARTMENT APARTMENT_TOPFLOOR_NS ELEC EQUIP,APARTMENTMIDRISE EQP_APT_SCH,T N2 APARTMENT ZN,88.25,2.5,511.846,5.800,204.738,0.000,0.500,0.000,0.500,General,194.501,511.846
 ElectricEquipment Internal Gains Nominal, T S1 APARTMENT ZN MIDRISEAPARTMENT APARTMENT_TOPFLOOR_NS ELEC EQUIP,APARTMENTMIDRISE EQP_APT_SCH,T S1 APARTMENT ZN,88.25,2.5,511.846,5.800,204.738,0.000,0.500,0.000,0.500,General,194.501,511.846
 ElectricEquipment Internal Gains Nominal, T S2 APARTMENT ZN MIDRISEAPARTMENT APARTMENT_TOPFLOOR_NS ELEC EQUIP,APARTMENTMIDRISE EQP_APT_SCH,T S2 APARTMENT ZN,88.25,2.5,511.846,5.800,204.738,0.000,0.500,0.000,0.500,General,194.501,511.846
 ElectricEquipment Internal Gains Nominal, T NE APARTMENT ZN MIDRISEAPARTMENT APARTMENT_TOPFLOOR_WE ELEC EQUIP,APARTMENTMIDRISE EQP_APT_SCH,T NE APARTMENT ZN,88.25,2.5,511.846,5.800,204.738,0.000,0.500,0.000,0.500,General,194.501,511.846
 ElectricEquipment Internal Gains Nominal, T NW APARTMENT ZN MIDRISEAPARTMENT APARTMENT_TOPFLOOR_WE ELEC EQUIP,APARTMENTMIDRISE EQP_APT_SCH,T NW APARTMENT ZN,88.25,2.5,511.846,5.800,204.738,0.000,0.500,0.000,0.500,General,194.501,511.846
 ElectricEquipment Internal Gains Nominal, T SE APARTMENT ZN MIDRISEAPARTMENT APARTMENT_TOPFLOOR_WE ELEC EQUIP,APARTMENTMIDRISE EQP_APT_SCH,T SE APARTMENT ZN,88.25,2.5,511.846,5.800,204.738,0.000,0.500,0.000,0.500,General,194.501,511.846
 ElectricEquipment Internal Gains Nominal, T SW APARTMENT ZN MIDRISEAPARTMENT APARTMENT_TOPFLOOR_WE ELEC EQUIP,APARTMENTMIDRISE EQP_APT_SCH,T SW APARTMENT ZN,88.25,2.5,511.846,5.800,204.738,0.000,0.500,0.000,0.500,General,194.501,511.846
 ElectricEquipment Internal Gains Nominal, OFFICE ZN MIDRISEAPARTMENT OFFICE ELEC EQUIP,APARTMENTMIDRISE EQP_OFF_SCH_2010_2013,OFFICE ZN,88.25,1.0,511.846,5.800,511.846,0.000,0.500,0.000,0.500,General,111.902,473.841
 ElectricEquipment Internal Gains Nominal, G_N1_HEATLOAD,G_N1_HEATLOAD_FRACTION,G N1 APARTMENT ZN,88.25,2.5,5000.000,56.658,2000.000,0.000,0.000,0.000,1.000,General,0.000,0.000
 ElectricEquipment Internal Gains Nominal, G_N2_HEATLOAD,G_N2_HEATLOAD_FRACTION,G N2 APARTMENT ZN,88.25,2.5,5000.000,56.658,2000.000,0.000,0.000,0.000,1.000,General,0.000,0.000
 ElectricEquipment Internal Gains Nominal, G_NE_HEATLOAD,G_NE_HEATLOAD_FRACTION,G NE APARTMENT ZN,88.25,2.5,5000.000,56.658,2000.000,0.000,0.000,0.000,1.000,General,0.000,0.000
 ElectricEquipment Internal Gains Nominal, G_NW_HEATLOAD,G_NW_HEATLOAD_FRACTION,G NW APARTMENT ZN,88.25,2.5,5000.000,56.658,2000.000,0.000,0.000,0.000,1.000,General,0.000,0.000
 ElectricEquipment Internal Gains Nominal, G_S1_HEATLOAD,G_S1_HEATLOAD_FRACTION,G S1 APARTMENT ZN,88.25,2.5,5000.000,56.658,2000.000,0.000,0.000,0.000,1.000,General,0.000,0.000
 ElectricEquipment Internal Gains Nominal, G_S2_HEATLOAD,G_S2_HEATLOAD_FRACTION,G S2 APARTMENT ZN,88.25,2.5,5000.000,56.658,2000.000,0.000,0.000,0.000,1.000,General,0.000,0.000
 ElectricEquipment Internal Gains Nominal, G_SW_HEATLOAD,G_SW_HEATLOAD_FRACTION,G SW APARTMENT ZN,88.25,2.5,5000.000,56.658,2000.000,0.000,0.000,0.000,1.000,General,0.000,0.000
 ElectricEquipment Internal Gains Nominal, M_N1_HEATLOAD,M_N1_HEATLOAD_FRACTION,M N1 APARTMENT ZN,88.25,2.5,5000.000,56.658,2000.000,0.000,0.000,0.000,1.000,General,0.000,0.000
 ElectricEquipment Internal Gains Nominal, M_N2_HEATLOAD,M_N2_HEATLOAD_FRACTION,M N2 APARTMENT ZN,88.25,2.5,5000.000,56.658,2000.000,0.000,0.000,0.000,1.000,General,0.000,0.000
 ElectricEquipment Internal Gains Nominal, M_NE_HEATLOAD,M_NE_HEATLOAD_FRACTION,M NE APARTMENT ZN,88.25,2.5,5000.000,56.658,2000.000,0.000,0.000,0.000,1.000,General,0.000,0.000
 ElectricEquipment Internal Gains Nominal, M_NW_HEATLOAD,M_NW_HEATLOAD_FRACTION,M NW APARTMENT ZN,88.25,2.5,5000.000,56.658,2000.000,0.000,0.000,0.000,1.000,General,0.000,0.000
 ElectricEquipment Internal Gains Nominal, M_S1_HEATLOAD,M_S1_HEATLOAD_FRACTION,M S1 APARTMENT ZN,88.25,2.5,5000.000,56.658,2000.000,0.000,0.000,0.000,1.000,General,0.000,0.000
 ElectricEquipment Internal Gains Nominal, M_S2_HEATLOAD,M_S2_HEATLOAD_FRACTION,M S2 APARTMENT ZN,88.25,2.5,5000.000,56.658,2000.000,0.000,0.000,0.000,1.000,General,0.000,0.000
 ElectricEquipment Internal Gains Nominal, M_SE_HEATLOAD,M_SE_HEATLOAD_FRACTION,M SE APARTMENT ZN,88.25,2.5,5000.000,56.658,2000.000,0.000,0.000,0.000,1.000,General,0.000,0.000
 ElectricEquipment Internal Gains Nominal, M_SW_HEATLOAD,M_SW_HEATLOAD_FRACTION,M SW APARTMENT ZN,88.25,2.5,5000.000,56.658,2000.000,0.000,0.000,0.000,1.000,General,0.000,0.000
 ElectricEquipment Internal Gains Nominal, T_N1_HEATLOAD,T_N1_HEATLOAD_FRACTION,T N1 APARTMENT ZN,88.25,2.5,5000.000,56.658,2000.000,0.000,0.000,0.000,1.000,General,0.000,0.000
 ElectricEquipment Internal Gains Nominal, T_N2_HEATLOAD,T_N2_HEATLOAD_FRACTION,T N2 APARTMENT ZN,88.25,2.5,5000.000,56.658,2000.000,0.000,0.000,0.000,1.000,General,0.000,0.000
 ElectricEquipment Internal Gains Nominal, T_NE_HEATLOAD,T_NE_HEATLOAD_FRACTION,T NE APARTMENT ZN,88.25,2.5,5000.000,56.658,2000.000,0.000,0.000,0.000,1.000,General,0.000,0.000
 ElectricEquipment Internal Gains Nominal, T_NW_HEATLOAD,T_NW_HEATLOAD_FRACTION,T NW APARTMENT ZN,88.25,2.5,5000.000,56.658,2000.000,0.000,0.000,0.000,1.000,General,0.000,0.000
 ElectricEquipment Internal Gains Nominal, T_S1_HEATLOAD,T_S1_HEATLOAD_FRACTION,T S1 APARTMENT ZN,88.25,2.5,5000.000,56.658,2000.000,0.000,0.000,0.000,1.000,General,0.000,0.000
 ElectricEquipment Internal Gains Nominal, T_S2_HEATLOAD,T_S2_HEATLOAD_FRACTION,T S2 APARTMENT ZN,88.25,2.5,5000.000,56.658,2000.000,0.000,0.000,0.000,1.000,General,0.000,0.000
 ElectricEquipment Internal Gains Nominal, T_SE_HEATLOAD,T_SE_HEATLOAD_FRACTION,T SE APARTMENT ZN,88.25,2.5,5000.000,56.658,2000.000,0.000,0.000,0.000,1.000,General,0.000,0.000
 ElectricEquipment Internal Gains Nominal, T_SW_HEATLOAD,T_SW_HEATLOAD_FRACTION,T SW APARTMENT ZN,88.25,2.5,5000.000,56.658,2000.000,0.000,0.000,0.000,1.000,General,0.000,0.000
! <Shadowing/Sun Position Calculations Annual Simulations>, Calculation Method, Value {days}, Allowable Number Figures in Shadow Overlap {}, Polygon Clipping Algorithm, Sky Diffuse Modeling Algorithm, External Shading Calculation Method, Output External Shading Calculation Results, Disable Self-Shading Within Shading Zone Groups, Disable Self-Shading From Shading Zone Groups to Other Zones
Shadowing/Sun Position Calculations Annual Simulations,AverageOverDaysInFrequency,20,15000,SutherlandHodgman,SimpleSkyDiffuseModeling,InternalCalculation,No,No,No
! <Zone/Window Adjacency Daylighting Counts>, Zone Name, Number of Exterior Windows, Number of Exterior Windows in Adjacent Zones
Zone/Window Adjacency Daylighting Counts, OFFICE ZN,2,0
! <Zone/Window Adjacency Daylighting Matrix>, Zone Name, Number of Adjacent Zones with Windows,Adjacent Zone Names - 1st 100 (max)
Zone/Window Adjacency Daylighting Matrix, OFFICE ZN,0
! <Water Heater Information>,Type,Name,Volume {m3},Maximum Capacity {W},Standard Rated Recovery Efficiency, Standard Rated Energy Factor
! <ZoneInfiltration Airflow Stats Nominal>,Name,Schedule Name,Zone Name, Zone Floor Area {m2}, # Zone Occupants,Design Volume Flow Rate {m3/s},Volume Flow Rate/Floor Area {m3/s-m2},Volume Flow Rate/Exterior Surface Area {m3/s-m2},ACH - Air Changes per Hour,Equation A - Constant Term Coefficient {},Equation B - Temperature Term Coefficient {1/C},Equation C - Velocity Term Coefficient {s/m}, Equation D - Velocity Squared Term Coefficient {s2/m2}
 ZoneInfiltration Airflow Stats Nominal, G CORRIDOR DOOR INFILTRATION,APARTMENTMIDRISE INFIL_DOOR_OPENING_SCH_2010_2013,G CORRIDOR ZN,77.66,0.0,0.328,4.218E-003,3.205E-002,4.982,1.000,0.000,0.000,0.000
 ZoneInfiltration Airflow Stats Nominal, G CORRIDOR INFILTRATION,APARTMENTMIDRISE INF_COR_SCH,G CORRIDOR ZN,77.66,0.0,5.820E-003,7.494E-005,5.696E-004,8.852E-002,0.000,0.000,0.224,0.000
 ZoneInfiltration Airflow Stats Nominal, G N1 APARTMENT INFILTRATION,APARTMENTMIDRISE INF_APT_SCH,G N1 APARTMENT ZN,88.25,2.5,2.011E-002,2.278E-004,5.696E-004,0.269,0.000,0.000,0.224,0.000
 ZoneInfiltration Airflow Stats Nominal, G N2 APARTMENT INFILTRATION,APARTMENTMIDRISE INF_APT_SCH,G N2 APARTMENT ZN,88.25,2.5,2.011E-002,2.278E-004,5.696E-004,0.269,0.000,0.000,0.224,0.000
 ZoneInfiltration Airflow Stats Nominal, G NE APARTMENT INFILTRATION,APARTMENTMIDRISE INF_APT_SCH,G NE APARTMENT ZN,88.25,2.5,3.333E-002,3.777E-004,5.696E-004,0.446,0.000,0.000,0.224,0.000
 ZoneInfiltration Airflow Stats Nominal, G NW APARTMENT INFILTRATION,APARTMENTMIDRISE INF_APT_SCH,G NW APARTMENT ZN,88.25,2.5,3.333E-002,3.777E-004,5.696E-004,0.446,0.000,0.000,0.224,0.000
 ZoneInfiltration Airflow Stats Nominal, G S1 APARTMENT INFILTRATION,APARTMENTMIDRISE INF_APT_SCH,G S1 APARTMENT ZN,88.25,2.5,2.011E-002,2.278E-004,5.696E-004,0.269,0.000,0.000,0.224,0.000
 ZoneInfiltration Airflow Stats Nominal, G S2 APARTMENT INFILTRATION,APARTMENTMIDRISE INF_APT_SCH,G S2 APARTMENT ZN,88.25,2.5,2.011E-002,2.278E-004,5.696E-004,0.269,0.000,0.000,0.224,0.000
 ZoneInfiltration Airflow Stats Nominal, G SW APARTMENT INFILTRATION,APARTMENTMIDRISE INF_APT_SCH,G SW APARTMENT ZN,88.25,2.5,3.333E-002,3.777E-004,5.696E-004,0.446,0.000,0.000,0.224,0.000
 ZoneInfiltration Airflow Stats Nominal, M CORRIDOR INFILTRATION,APARTMENTMIDRISE INF_COR_SCH,M CORRIDOR ZN,77.66,0.0,5.820E-003,7.494E-005,5.696E-004,8.852E-002,0.000,0.000,0.224,0.000
 ZoneInfiltration Airflow Stats Nominal, M N1 APARTMENT INFILTRATION,APARTMENTMIDRISE INF_APT_SCH,M N1 APARTMENT ZN,88.25,2.5,2.011E-002,2.278E-004,5.696E-004,0.269,0.000,0.000,0.224,0.000
 ZoneInfiltration Airflow Stats Nominal, M N2 APARTMENT INFILTRATION,APARTMENTMIDRISE INF_APT_SCH,M N2 APARTMENT ZN,88.25,2.5,2.011E-002,2.278E-004,5.696E-004,0.269,0.000,0.000,0.224,0.000
 ZoneInfiltration Airflow Stats Nominal, M NE APARTMENT INFILTRATION,APARTMENTMIDRISE INF_APT_SCH,M NE APARTMENT ZN,88.25,2.5,3.333E-002,3.777E-004,5.696E-004,0.446,0.000,0.000,0.224,0.000
 ZoneInfiltration Airflow Stats Nominal, M NW APARTMENT INFILTRATION,APARTMENTMIDRISE INF_APT_SCH,M NW APARTMENT ZN,88.25,2.5,3.333E-002,3.777E-004,5.696E-004,0.446,0.000,0.000,0.224,0.000
 ZoneInfiltration Airflow Stats Nominal, M S1 APARTMENT INFILTRATION,APARTMENTMIDRISE INF_APT_SCH,M S1 APARTMENT ZN,88.25,2.5,2.011E-002,2.278E-004,5.696E-004,0.269,0.000,0.000,0.224,0.000
 ZoneInfiltration Airflow Stats Nominal, M S2 APARTMENT INFILTRATION,APARTMENTMIDRISE INF_APT_SCH,M S2 APARTMENT ZN,88.25,2.5,2.011E-002,2.278E-004,5.696E-004,0.269,0.000,0.000,0.224,0.000
 ZoneInfiltration Airflow Stats Nominal, M SE APARTMENT INFILTRATION,APARTMENTMIDRISE INF_APT_SCH,M SE APARTMENT ZN,88.25,2.5,3.333E-002,3.777E-004,5.696E-004,0.446,0.000,0.000,0.224,0.000
 ZoneInfiltration Airflow Stats Nominal, M SW APARTMENT INFILTRATION,APARTMENTMIDRISE INF_APT_SCH,M SW APARTMENT ZN,88.25,2.5,3.333E-002,3.777E-004,5.696E-004,0.446,0.000,0.000,0.224,0.000
 ZoneInfiltration Airflow Stats Nominal, OFFICE INFILTRATION,APARTMENTMIDRISE INF_OFF_SCH,OFFICE ZN,88.25,1.0,3.333E-002,3.777E-004,5.696E-004,0.446,0.000,0.000,0.224,0.000
 ZoneInfiltration Airflow Stats Nominal, T CORRIDOR INFILTRATION,APARTMENTMIDRISE INF_COR_SCH,T CORRIDOR ZN,77.66,0.0,5.820E-003,7.494E-005,6.623E-005,8.852E-002,0.000,0.000,0.224,0.000
 ZoneInfiltration Airflow Stats Nominal, T N1 APARTMENT INFILTRATION,APARTMENTMIDRISE INF_APT_SCH,T N1 APARTMENT ZN,88.25,2.5,2.011E-002,2.278E-004,1.627E-004,0.269,0.000,0.000,0.224,0.000
 ZoneInfiltration Airflow Stats Nominal, T N2 APARTMENT INFILTRATION,APARTMENTMIDRISE INF_APT_SCH,T N2 APARTMENT ZN,88.25,2.5,2.011E-002,2.278E-004,1.627E-004,0.269,0.000,0.000,0.224,0.000
 ZoneInfiltration Airflow Stats Nominal, T NE APARTMENT INFILTRATION,APARTMENTMIDRISE INF_APT_SCH,T NE APARTMENT ZN,88.25,2.5,3.333E-002,3.777E-004,2.271E-004,0.446,0.000,0.000,0.224,0.000
 ZoneInfiltration Airflow Stats Nominal, T NW APARTMENT INFILTRATION,APARTMENTMIDRISE INF_APT_SCH,T NW APARTMENT ZN,88.25,2.5,3.333E-002,3.777E-004,2.271E-004,0.446,0.000,0.000,0.224,0.000
 ZoneInfiltration Airflow Stats Nominal, T S1 APARTMENT INFILTRATION,APARTMENTMIDRISE INF_APT_SCH,T S1 APARTMENT ZN,88.25,2.5,2.011E-002,2.278E-004,1.627E-004,0.269,0.000,0.000,0.224,0.000
 ZoneInfiltration Airflow Stats Nominal, T S2 APARTMENT INFILTRATION,APARTMENTMIDRISE INF_APT_SCH,T S2 APARTMENT ZN,88.25,2.5,2.011E-002,2.278E-004,1.627E-004,0.269,0.000,0.000,0.224,0.000
 ZoneInfiltration Airflow Stats Nominal, T SE APARTMENT INFILTRATION,APARTMENTMIDRISE INF_APT_SCH,T SE APARTMENT ZN,88.25,2.5,3.333E-002,3.777E-004,2.271E-004,0.446,0.000,0.000,0.224,0.000
 ZoneInfiltration Airflow Stats Nominal, T SW APARTMENT INFILTRATION,APARTMENTMIDRISE INF_APT_SCH,T SW APARTMENT ZN,88.25,2.5,3.333E-002,3.777E-004,2.271E-004,0.446,0.000,0.000,0.224,0.000
! <AirFlow Model>, Simple
 AirFlow Model, Simple
! <RoomAir Model>, Zone Name, Mixing/Mundt/UCSDDV/UCSDCV/UCSDUFI/UCSDUFE/User Defined
RoomAir Model,G CORRIDOR ZN,Mixing/Well-Stirred
RoomAir Model,G N1 APARTMENT ZN,Mixing/Well-Stirred
RoomAir Model,G N2 APARTMENT ZN,Mixing/Well-Stirred
RoomAir Model,G NE APARTMENT ZN,Mixing/Well-Stirred
RoomAir Model,G NW APARTMENT ZN,Mixing/Well-Stirred
RoomAir Model,G S1 APARTMENT ZN,Mixing/Well-Stirred
RoomAir Model,G S2 APARTMENT ZN,Mixing/Well-Stirred
RoomAir Model,G SW APARTMENT ZN,Mixing/Well-Stirred
RoomAir Model,M CORRIDOR ZN,Mixing/Well-Stirred
RoomAir Model,M N1 APARTMENT ZN,Mixing/Well-Stirred
RoomAir Model,M N2 APARTMENT ZN,Mixing/Well-Stirred
RoomAir Model,M NE APARTMENT ZN,Mixing/Well-Stirred
RoomAir Model,M NW APARTMENT ZN,Mixing/Well-Stirred
RoomAir Model,M S1 APARTMENT ZN,Mixing/Well-Stirred
RoomAir Model,M S2 APARTMENT ZN,Mixing/Well-Stirred
RoomAir Model,M SE APARTMENT ZN,Mixing/Well-Stirred
RoomAir Model,M SW APARTMENT ZN,Mixing/Well-Stirred
RoomAir Model,OFFICE ZN,Mixing/Well-Stirred
RoomAir Model,T CORRIDOR ZN,Mixing/Well-Stirred
RoomAir Model,T N1 APARTMENT ZN,Mixing/Well-Stirred
RoomAir Model,T N2 APARTMENT ZN,Mixing/Well-Stirred
RoomAir Model,T NE APARTMENT ZN,Mixing/Well-Stirred
RoomAir Model,T NW APARTMENT ZN,Mixing/Well-Stirred
RoomAir Model,T S1 APARTMENT ZN,Mixing/Well-Stirred
RoomAir Model,T S2 APARTMENT ZN,Mixing/Well-Stirred
RoomAir Model,T SE APARTMENT ZN,Mixing/Well-Stirred
RoomAir Model,T SW APARTMENT ZN,Mixing/Well-Stirred
! <AirflowNetwork Model:Control>, No Multizone or Distribution/Multizone with Distribution/Multizone without Distribution/Multizone with Distribution only during Fan Operation
AirflowNetwork Model:Control,NoMultizoneOrDistribution
! <Zone Volume Capacitance Multiplier>, Sensible Heat Capacity Multiplier, Moisture Capacity Multiplier, Carbon Dioxide Capacity Multiplier, Generic Contaminant Capacity Multiplier
Zone Volume Capacitance Multiplier,   1.000 ,   1.000,   1.000,   1.000
! <Load Timesteps in Zone Design Calculation Averaging Window>, Value
 Load Timesteps in Zone Design Calculation Averaging Window,   60
! <Heating Sizing Factor Information>, Sizing Factor ID, Value
 Heating Sizing Factor Information, Global,   1.2000    
 Heating Sizing Factor Information, Zone G N1 APARTMENT ZN,   1.2000    
 Heating Sizing Factor Information, Zone G N2 APARTMENT ZN,   1.2000    
 Heating Sizing Factor Information, Zone G NE APARTMENT ZN,   1.2000    
 Heating Sizing Factor Information, Zone G NW APARTMENT ZN,   1.2000    
 Heating Sizing Factor Information, Zone G S1 APARTMENT ZN,   1.2000    
 Heating Sizing Factor Information, Zone G S2 APARTMENT ZN,   1.2000    
 Heating Sizing Factor Information, Zone G SW APARTMENT ZN,   1.2000    
 Heating Sizing Factor Information, Zone M N1 APARTMENT ZN,   1.2000    
 Heating Sizing Factor Information, Zone M N2 APARTMENT ZN,   1.2000    
 Heating Sizing Factor Information, Zone M NE APARTMENT ZN,   1.2000    
 Heating Sizing Factor Information, Zone M NW APARTMENT ZN,   1.2000    
 Heating Sizing Factor Information, Zone M S1 APARTMENT ZN,   1.2000    
 Heating Sizing Factor Information, Zone M S2 APARTMENT ZN,   1.2000    
 Heating Sizing Factor Information, Zone M SE APARTMENT ZN,   1.2000    
 Heating Sizing Factor Information, Zone M SW APARTMENT ZN,   1.2000    
 Heating Sizing Factor Information, Zone OFFICE ZN,   1.2000    
 Heating Sizing Factor Information, Zone T N1 APARTMENT ZN,   1.2000    
 Heating Sizing Factor Information, Zone T N2 APARTMENT ZN,   1.2000    
 Heating Sizing Factor Information, Zone T NE APARTMENT ZN,   1.2000    
 Heating Sizing Factor Information, Zone T NW APARTMENT ZN,   1.2000    
 Heating Sizing Factor Information, Zone T S1 APARTMENT ZN,   1.2000    
 Heating Sizing Factor Information, Zone T S2 APARTMENT ZN,   1.2000    
 Heating Sizing Factor Information, Zone T SE APARTMENT ZN,   1.2000    
 Heating Sizing Factor Information, Zone T SW APARTMENT ZN,   1.2000    
! <Cooling Sizing Factor Information>, Sizing Factor ID, Value
 Cooling Sizing Factor Information, Global,   2.0000    
 Cooling Sizing Factor Information, Zone G N1 APARTMENT ZN,   2.0000    
 Cooling Sizing Factor Information, Zone G N2 APARTMENT ZN,   2.0000    
 Cooling Sizing Factor Information, Zone G NE APARTMENT ZN,   2.0000    
 Cooling Sizing Factor Information, Zone G NW APARTMENT ZN,   2.0000    
 Cooling Sizing Factor Information, Zone G S1 APARTMENT ZN,   2.0000    
 Cooling Sizing Factor Information, Zone G S2 APARTMENT ZN,   2.0000    
 Cooling Sizing Factor Information, Zone G SW APARTMENT ZN,   2.0000    
 Cooling Sizing Factor Information, Zone M N1 APARTMENT ZN,   2.0000    
 Cooling Sizing Factor Information, Zone M N2 APARTMENT ZN,   2.0000    
 Cooling Sizing Factor Information, Zone M NE APARTMENT ZN,   2.0000    
 Cooling Sizing Factor Information, Zone M NW APARTMENT ZN,   2.0000    
 Cooling Sizing Factor Information, Zone M S1 APARTMENT ZN,   2.0000    
 Cooling Sizing Factor Information, Zone M S2 APARTMENT ZN,   2.0000    
 Cooling Sizing Factor Information, Zone M SE APARTMENT ZN,   2.0000    
 Cooling Sizing Factor Information, Zone M SW APARTMENT ZN,   2.0000    
 Cooling Sizing Factor Information, Zone OFFICE ZN,   2.0000    
 Cooling Sizing Factor Information, Zone T N1 APARTMENT ZN,   2.0000    
 Cooling Sizing Factor Information, Zone T N2 APARTMENT ZN,   2.0000    
 Cooling Sizing Factor Information, Zone T NE APARTMENT ZN,   2.0000    
 Cooling Sizing Factor Information, Zone T NW APARTMENT ZN,   2.0000    
 Cooling Sizing Factor Information, Zone T S1 APARTMENT ZN,   2.0000    
 Cooling Sizing Factor Information, Zone T S2 APARTMENT ZN,   2.0000    
 Cooling Sizing Factor Information, Zone T SE APARTMENT ZN,   2.0000    
 Cooling Sizing Factor Information, Zone T SW APARTMENT ZN,   2.0000    
! <Sky Daylight Factors>, MonthAndDay, Zone Name, Window Name, Daylight Fac: Ref Pt #1, Daylight Fac: Ref Pt #2
 Clear Sky Daylight Factors,01/21,OFFICE ZN,GWINDOW1 E SEA,3.5538E-003,4.2277E-003
 Clear Turbid Sky Daylight Factors,01/21,OFFICE ZN,GWINDOW1 E SEA,3.1063E-003,3.7235E-003
 Intermediate Sky Daylight Factors,01/21,OFFICE ZN,GWINDOW1 E SEA,2.6539E-003,3.2583E-003
 Overcast Sky Daylight Factors,01/21,OFFICE ZN,GWINDOW1 E SEA,2.0402E-003,2.3065E-003
 Clear Sky Daylight Factors,01/21,OFFICE ZN,GWINDOW1 S SEA,0.1507,5.8320E-002
 Clear Turbid Sky Daylight Factors,01/21,OFFICE ZN,GWINDOW1 S SEA,0.1693,6.4146E-002
 Intermediate Sky Daylight Factors,01/21,OFFICE ZN,GWINDOW1 S SEA,0.1114,3.6602E-002
 Overcast Sky Daylight Factors,01/21,OFFICE ZN,GWINDOW1 S SEA,4.4659E-002,1.3044E-002
! <Zone Sizing Information>, Zone Name, Load Type, Calc Des Load {W}, User Des Load {W}, Calc Des Air Flow Rate {m3/s}, User Des Air Flow Rate {m3/s}, Design Day Name, Date/Time of Peak, Temperature at Peak {C}, Humidity Ratio at Peak {kgWater/kgDryAir}, Floor Area {m2}, # Occupants, Calc Outdoor Air Flow Rate {m3/s}, Calc DOAS Heat Addition Rate {W}
 Zone Sizing Information, G N1 APARTMENT ZN, Cooling, 1045.17444, 2090.34888, 8.74895E-002, 0.17498, CHICAGO OHARE INTL AP ANN CLG .4% CONDNS DB=>MWB, 7/21 19:00:00, 31.90000, 1.60321E-002, 88.24927, 2.50000, 2.61499E-002, 0.00000
 Zone Sizing Information, G N1 APARTMENT ZN, Heating, 261.50945, 313.81134, 7.29670E-003, 2.61499E-002, CAMP MABRY ANN HTG 99.6% CONDNS DB, 1/21 09:06:00, -3.00000, 3.00629E-003, 88.24927, 2.50000, 2.61499E-002, 0.00000
 Zone Sizing Information, G N2 APARTMENT ZN, Cooling, 1034.10242, 2068.20484, 8.65627E-002, 0.17313, CHICAGO OHARE INTL AP ANN CLG .4% CONDNS DB=>MWB, 7/21 19:00:00, 31.90000, 1.60321E-002, 88.24927, 2.50000, 2.61499E-002, 0.00000
 Zone Sizing Information, G N2 APARTMENT ZN, Heating, 261.50945, 313.81134, 7.29670E-003, 2.61499E-002, CAMP MABRY ANN HTG 99.6% CONDNS DB, 1/21 09:06:00, -3.00000, 3.00629E-003, 88.24927, 2.50000, 2.61499E-002, 0.00000
 Zone Sizing Information, G NE APARTMENT ZN, Cooling, 1365.59697, 2731.19395, 0.11431, 0.22862, CHICAGO OHARE INTL AP ANN CLG .4% CONDNS DB=>MWB, 7/21 10:30:00, 32.75000, 1.60321E-002, 88.24927, 2.50000, 2.61499E-002, 0.00000
 Zone Sizing Information, G NE APARTMENT ZN, Heating, 605.17020, 726.20424, 1.68856E-002, 2.61499E-002, CAMP MABRY ANN HTG 99.6% CONDNS DB, 1/21 09:05:00, -3.00000, 3.00629E-003, 88.24927, 2.50000, 2.61499E-002, 0.00000
 Zone Sizing Information, G NW APARTMENT ZN, Cooling, 1748.14440, 3496.28880, 0.14633, 0.29267, CHICAGO OHARE INTL AP ANN CLG .4% CONDNS DB=>MWB, 7/21 18:15:00, 33.02500, 1.60321E-002, 88.24927, 2.50000, 2.61499E-002, 0.00000
 Zone Sizing Information, G NW APARTMENT ZN, Heating, 605.17020, 726.20424, 1.68856E-002, 2.61499E-002, CAMP MABRY ANN HTG 99.6% CONDNS DB, 1/21 09:05:00, -3.00000, 3.00629E-003, 88.24927, 2.50000, 2.61499E-002, 0.00000
 Zone Sizing Information, G S1 APARTMENT ZN, Cooling, 984.81814, 1969.63628, 8.24372E-002, 0.16487, CHICAGO OHARE INTL AP ANN CLG .4% CONDNS DB=>MWB, 7/21 18:54:00, 32.05000, 1.60321E-002, 88.24927, 2.50000, 2.61499E-002, 0.00000
 Zone Sizing Information, G S1 APARTMENT ZN, Heating, 263.80247, 316.56296, 7.36068E-003, 2.61499E-002, CAMP MABRY ANN HTG 99.6% CONDNS DB, 1/21 09:06:00, -3.00000, 3.00629E-003, 88.24927, 2.50000, 2.61499E-002, 0.00000
 Zone Sizing Information, G S2 APARTMENT ZN, Cooling, 967.73307, 1935.46614, 8.10070E-002, 0.16201, CHICAGO OHARE INTL AP ANN CLG .4% CONDNS DB=>MWB, 7/21 18:54:00, 32.05000, 1.60321E-002, 88.24927, 2.50000, 2.61499E-002, 0.00000
 Zone Sizing Information, G S2 APARTMENT ZN, Heating, 268.96001, 322.75202, 7.50459E-003, 2.61499E-002, CAMP MABRY ANN HTG 99.6% CONDNS DB, 1/21 09:06:00, -3.00000, 3.00629E-003, 88.24927, 2.50000, 2.61499E-002, 0.00000
 Zone Sizing Information, G SW APARTMENT ZN, Cooling, 1727.29724, 3454.59447, 0.14459, 0.28918, CHICAGO OHARE INTL AP ANN CLG .4% CONDNS DB=>MWB, 7/21 18:00:00, 33.40000, 1.60321E-002, 88.24927, 2.50000, 2.61499E-002, 0.00000
 Zone Sizing Information, G SW APARTMENT ZN, Heating, 607.45126, 728.94151, 1.69492E-002, 2.61499E-002, CAMP MABRY ANN HTG 99.6% CONDNS DB, 1/21 09:05:00, -3.00000, 3.00629E-003, 88.24927, 2.50000, 2.61499E-002, 0.00000
 Zone Sizing Information, M N1 APARTMENT ZN, Cooling, 1330.74880, 2661.49760, 0.11139, 0.22279, CHICAGO OHARE INTL AP ANN CLG .4% CONDNS DB=>MWB, 7/21 19:00:00, 31.90000, 1.60321E-002, 88.24927, 2.50000, 2.61499E-002, 0.00000
 Zone Sizing Information, M N1 APARTMENT ZN, Heating, 333.24274, 399.89129, 9.29822E-003, 2.61499E-002, CAMP MABRY ANN HTG 99.6% CONDNS DB, 1/21 15:00:00, -3.00000, 3.00629E-003, 88.24927, 2.50000, 2.61499E-002, 0.00000
 Zone Sizing Information, M N2 APARTMENT ZN, Cooling, 1316.08217, 2632.16434, 0.11017, 0.22033, CHICAGO OHARE INTL AP ANN CLG .4% CONDNS DB=>MWB, 7/21 19:00:00, 31.90000, 1.60321E-002, 88.24927, 2.50000, 2.61499E-002, 0.00000
 Zone Sizing Information, M N2 APARTMENT ZN, Heating, 333.24275, 399.89130, 9.29822E-003, 2.61499E-002, CAMP MABRY ANN HTG 99.6% CONDNS DB, 1/21 15:00:00, -3.00000, 3.00629E-003, 88.24927, 2.50000, 2.61499E-002, 0.00000
 Zone Sizing Information, M NE APARTMENT ZN, Cooling, 1831.81706, 3663.63413, 0.15334, 0.30668, CHICAGO OHARE INTL AP ANN CLG .4% CONDNS DB=>MWB, 7/21 10:22:00, 32.55000, 1.60321E-002, 88.24927, 2.50000, 2.61499E-002, 0.00000
 Zone Sizing Information, M NE APARTMENT ZN, Heating, 755.71189, 906.85427, 2.10860E-002, 2.61499E-002, CAMP MABRY ANN HTG 99.6% CONDNS DB, 1/21 15:00:00, -3.00000, 3.00629E-003, 88.24927, 2.50000, 2.61499E-002, 0.00000
 Zone Sizing Information, M NW APARTMENT ZN, Cooling, 2249.78955, 4499.57910, 0.18833, 0.37665, CHICAGO OHARE INTL AP ANN CLG .4% CONDNS DB=>MWB, 7/21 18:00:00, 33.40000, 1.60321E-002, 88.24927, 2.50000, 2.61499E-002, 0.00000
 Zone Sizing Information, M NW APARTMENT ZN, Heating, 755.71190, 906.85428, 2.10860E-002, 2.61499E-002, CAMP MABRY ANN HTG 99.6% CONDNS DB, 1/21 15:00:00, -3.00000, 3.00629E-003, 88.24927, 2.50000, 2.61499E-002, 0.00000
 Zone Sizing Information, M S1 APARTMENT ZN, Cooling, 1271.33486, 2542.66973, 0.10642, 0.21284, CHICAGO OHARE INTL AP ANN CLG .4% CONDNS DB=>MWB, 7/21 13:48:00, 35.70000, 1.60321E-002, 88.24927, 2.50000, 2.61499E-002, 0.00000
 Zone Sizing Information, M S1 APARTMENT ZN, Heating, 327.50942, 393.01130, 9.13824E-003, 2.61499E-002, CAMP MABRY ANN HTG 99.6% CONDNS DB, 1/21 15:00:00, -3.00000, 3.00629E-003, 88.24927, 2.50000, 2.61499E-002, 0.00000
 Zone Sizing Information, M S2 APARTMENT ZN, Cooling, 1279.01457, 2558.02915, 0.10706, 0.21413, CHICAGO OHARE INTL AP ANN CLG .4% CONDNS DB=>MWB, 7/21 13:44:00, 35.66667, 1.60321E-002, 88.24927, 2.50000, 2.61499E-002, 0.00000
 Zone Sizing Information, M S2 APARTMENT ZN, Heating, 327.50942, 393.01130, 9.13824E-003, 2.61499E-002, CAMP MABRY ANN HTG 99.6% CONDNS DB, 1/21 15:00:00, -3.00000, 3.00629E-003, 88.24927, 2.50000, 2.61499E-002, 0.00000
 Zone Sizing Information, M SE APARTMENT ZN, Cooling, 1887.04371, 3774.08743, 0.15796, 0.31592, CHICAGO OHARE INTL AP ANN CLG .4% CONDNS DB=>MWB, 7/21 11:01:00, 33.51667, 1.60321E-002, 88.24927, 2.50000, 2.61499E-002, 0.00000
 Zone Sizing Information, M SE APARTMENT ZN, Heating, 749.47033, 899.36439, 2.09118E-002, 2.61499E-002, CAMP MABRY ANN HTG 99.6% CONDNS DB, 1/21 15:00:00, -3.00000, 3.00629E-003, 88.24927, 2.50000, 2.61499E-002, 0.00000
 Zone Sizing Information, M SW APARTMENT ZN, Cooling, 2230.12071, 4460.24142, 0.18668, 0.37336, CHICAGO OHARE INTL AP ANN CLG .4% CONDNS DB=>MWB, 7/21 17:46:00, 33.63333, 1.60321E-002, 88.24927, 2.50000, 2.61499E-002, 0.00000
 Zone Sizing Information, M SW APARTMENT ZN, Heating, 749.47033, 899.36440, 2.09118E-002, 2.61499E-002, CAMP MABRY ANN HTG 99.6% CONDNS DB, 1/21 15:00:00, -3.00000, 3.00629E-003, 88.24927, 2.50000, 2.61499E-002, 0.00000
 Zone Sizing Information, OFFICE ZN, Cooling, 2412.79751, 4825.59501, 0.20197, 0.40394, CHICAGO OHARE INTL AP ANN CLG .4% CONDNS DB=>MWB, 7/21 20:29:00, 30.36500, 1.60321E-002, 88.24927, 1.00000, 3.81060E-002, 0.00000
 Zone Sizing Information, OFFICE ZN, Heating, 910.09814, 1092.11776, 2.53937E-002, 3.81060E-002, CAMP MABRY ANN HTG 99.6% CONDNS DB, 1/21 18:51:00, -3.00000, 3.00629E-003, 88.24927, 1.00000, 3.81060E-002, 0.00000
 Zone Sizing Information, T N1 APARTMENT ZN, Cooling, 1799.69693, 3599.39386, 0.15065, 0.30130, CHICAGO OHARE INTL AP ANN CLG .4% CONDNS DB=>MWB, 7/21 19:00:00, 31.90000, 1.60321E-002, 88.24927, 2.50000, 2.61499E-002, 0.00000
 Zone Sizing Information, T N1 APARTMENT ZN, Heating, 941.57550, 1129.89061, 2.62720E-002, 3.15264E-002, CAMP MABRY ANN HTG 99.6% CONDNS DB, 1/21 15:00:00, -3.00000, 3.00629E-003, 88.24927, 2.50000, 2.61499E-002, 0.00000
 Zone Sizing Information, T N2 APARTMENT ZN, Cooling, 1786.01313, 3572.02625, 0.14950, 0.29901, CHICAGO OHARE INTL AP ANN CLG .4% CONDNS DB=>MWB, 7/21 19:00:00, 31.90000, 1.60321E-002, 88.24927, 2.50000, 2.61499E-002, 0.00000
 Zone Sizing Information, T N2 APARTMENT ZN, Heating, 941.57046, 1129.88455, 2.62718E-002, 3.15262E-002, CAMP MABRY ANN HTG 99.6% CONDNS DB, 1/21 15:00:00, -3.00000, 3.00629E-003, 88.24927, 2.50000, 2.61499E-002, 0.00000
 Zone Sizing Information, T NE APARTMENT ZN, Cooling, 2118.22736, 4236.45473, 0.17732, 0.35463, CHICAGO OHARE INTL AP ANN CLG .4% CONDNS DB=>MWB, 7/21 18:54:00, 32.05000, 1.60321E-002, 88.24927, 2.50000, 2.61499E-002, 0.00000
 Zone Sizing Information, T NE APARTMENT ZN, Heating, 1411.54551, 1693.85461, 3.93850E-002, 4.72620E-002, CAMP MABRY ANN HTG 99.6% CONDNS DB, 1/21 15:00:00, -3.00000, 3.00629E-003, 88.24927, 2.50000, 2.61499E-002, 0.00000
 Zone Sizing Information, T NW APARTMENT ZN, Cooling, 2703.25832, 5406.51663, 0.22629, 0.45258, CHICAGO OHARE INTL AP ANN CLG .4% CONDNS DB=>MWB, 7/21 18:13:00, 33.07500, 1.60321E-002, 88.24927, 2.50000, 2.61499E-002, 0.00000
 Zone Sizing Information, T NW APARTMENT ZN, Heating, 1411.54543, 1693.85452, 3.93850E-002, 4.72620E-002, CAMP MABRY ANN HTG 99.6% CONDNS DB, 1/21 15:00:00, -3.00000, 3.00629E-003, 88.24927, 2.50000, 2.61499E-002, 0.00000
 Zone Sizing Information, T S1 APARTMENT ZN, Cooling, 1720.83135, 3441.66271, 0.14405, 0.28810, CHICAGO OHARE INTL AP ANN CLG .4% CONDNS DB=>MWB, 7/21 19:00:00, 31.90000, 1.60321E-002, 88.24927, 2.50000, 2.61499E-002, 0.00000
 Zone Sizing Information, T S1 APARTMENT ZN, Heating, 933.85895, 1120.63074, 2.60567E-002, 3.12680E-002, CAMP MABRY ANN HTG 99.6% CONDNS DB, 1/21 15:00:00, -3.00000, 3.00629E-003, 88.24927, 2.50000, 2.61499E-002, 0.00000
 Zone Sizing Information, T S2 APARTMENT ZN, Cooling, 1707.38508, 3414.77015, 0.14292, 0.28585, CHICAGO OHARE INTL AP ANN CLG .4% CONDNS DB=>MWB, 7/21 19:00:00, 31.90000, 1.60321E-002, 88.24927, 2.50000, 2.61499E-002, 0.00000
 Zone Sizing Information, T S2 APARTMENT ZN, Heating, 933.85895, 1120.63074, 2.60567E-002, 3.12680E-002, CAMP MABRY ANN HTG 99.6% CONDNS DB, 1/21 15:00:00, -3.00000, 3.00629E-003, 88.24927, 2.50000, 2.61499E-002, 0.00000
 Zone Sizing Information, T SE APARTMENT ZN, Cooling, 2056.72959, 4113.45918, 0.17217, 0.34434, CHICAGO OHARE INTL AP ANN CLG .4% CONDNS DB=>MWB, 7/21 18:08:00, 33.20000, 1.60321E-002, 88.24927, 2.50000, 2.61499E-002, 0.00000
 Zone Sizing Information, T SE APARTMENT ZN, Heating, 1403.47633, 1684.17160, 3.91598E-002, 4.69918E-002, CAMP MABRY ANN HTG 99.6% CONDNS DB, 1/21 15:00:00, -3.00000, 3.00629E-003, 88.24927, 2.50000, 2.61499E-002, 0.00000
 Zone Sizing Information, T SW APARTMENT ZN, Cooling, 2678.62051, 5357.24102, 0.22423, 0.44845, CHICAGO OHARE INTL AP ANN CLG .4% CONDNS DB=>MWB, 7/21 18:00:00, 33.40000, 1.60321E-002, 88.24927, 2.50000, 2.61499E-002, 0.00000
 Zone Sizing Information, T SW APARTMENT ZN, Heating, 1403.47634, 1684.17161, 3.91598E-002, 4.69918E-002, CAMP MABRY ANN HTG 99.6% CONDNS DB, 1/21 15:00:00, -3.00000, 3.00629E-003, 88.24927, 2.50000, 2.61499E-002, 0.00000
! <System Sizing Information>, System Name, Load Type, Peak Load Kind, User Design Capacity, Calc Des Air Flow Rate [m3/s], User Des Air Flow Rate [m3/s], Design Day Name, Date/Time of Peak
 System Sizing Information, G N1 APARTMENT ZN SAC, Cooling, Total, 3680.36, 0.17498, 0.17498, CHICAGO OHARE INTL AP ANN CLG .4% CONDNS DB=>MWB, 7/21 05:00:00
 System Sizing Information, G N1 APARTMENT ZN SAC, Heating, Sensible, 1631.59, 2.61499E-002, 2.61499E-002, CAMP MABRY ANN HTG 99.6% CONDNS DB, 1/21 00:01:00
 System Sizing Information, G N2 APARTMENT ZN SAC, Cooling, Sensible, 2688.90, 0.17313, 0.17313, CHICAGO OHARE INTL AP ANN CLG .4% CONDNS DB=>MWB, 7/21 05:00:00
 System Sizing Information, G N2 APARTMENT ZN SAC, Heating, Sensible, 1631.59, 2.61499E-002, 2.61499E-002, CAMP MABRY ANN HTG 99.6% CONDNS DB, 1/21 00:01:00
 System Sizing Information, G NE APARTMENT ZN SAC, Cooling, Sensible, 3499.07, 0.22862, 0.22862, CHICAGO OHARE INTL AP ANN CLG .4% CONDNS DB=>MWB, 7/21 05:00:00
 System Sizing Information, G NE APARTMENT ZN SAC, Heating, Sensible, 1631.59, 2.61499E-002, 2.61499E-002, CAMP MABRY ANN HTG 99.6% CONDNS DB, 1/21 00:01:00
 System Sizing Information, G NW APARTMENT ZN SAC, Cooling, Sensible, 4412.28, 0.29267, 0.29267, CHICAGO OHARE INTL AP ANN CLG .4% CONDNS DB=>MWB, 7/21 05:00:00
 System Sizing Information, G NW APARTMENT ZN SAC, Heating, Sensible, 1631.59, 2.61499E-002, 2.61499E-002, CAMP MABRY ANN HTG 99.6% CONDNS DB, 1/21 00:01:00
 System Sizing Information, G S1 APARTMENT ZN SAC, Cooling, Sensible, 2576.96, 0.16487, 0.16487, CHICAGO OHARE INTL AP ANN CLG .4% CONDNS DB=>MWB, 7/21 05:00:00
 System Sizing Information, G S1 APARTMENT ZN SAC, Heating, Sensible, 1631.59, 2.61499E-002, 2.61499E-002, CAMP MABRY ANN HTG 99.6% CONDNS DB, 1/21 00:01:00
 System Sizing Information, G S2 APARTMENT ZN SAC, Cooling, Sensible, 2536.55, 0.16201, 0.16201, CHICAGO OHARE INTL AP ANN CLG .4% CONDNS DB=>MWB, 7/21 05:00:00
 System Sizing Information, G S2 APARTMENT ZN SAC, Heating, Sensible, 1631.59, 2.61499E-002, 2.61499E-002, CAMP MABRY ANN HTG 99.6% CONDNS DB, 1/21 00:01:00
 System Sizing Information, G SW APARTMENT ZN SAC, Cooling, Sensible, 4374.52, 0.28918, 0.28918, CHICAGO OHARE INTL AP ANN CLG .4% CONDNS DB=>MWB, 7/21 05:00:00
 System Sizing Information, G SW APARTMENT ZN SAC, Heating, Sensible, 1631.59, 2.61499E-002, 2.61499E-002, CAMP MABRY ANN HTG 99.6% CONDNS DB, 1/21 00:01:00
 System Sizing Information, M N1 APARTMENT ZN SAC, Cooling, Sensible, 3390.49, 0.22279, 0.22279, CHICAGO OHARE INTL AP ANN CLG .4% CONDNS DB=>MWB, 7/21 05:00:00
 System Sizing Information, M N1 APARTMENT ZN SAC, Heating, Sensible, 1631.59, 2.61499E-002, 2.61499E-002, CAMP MABRY ANN HTG 99.6% CONDNS DB, 1/21 00:01:00
 System Sizing Information, M N2 APARTMENT ZN SAC, Cooling, Sensible, 3355.80, 0.22033, 0.22033, CHICAGO OHARE INTL AP ANN CLG .4% CONDNS DB=>MWB, 7/21 05:00:00
 System Sizing Information, M N2 APARTMENT ZN SAC, Heating, Sensible, 1631.59, 2.61499E-002, 2.61499E-002, CAMP MABRY ANN HTG 99.6% CONDNS DB, 1/21 00:01:00
 System Sizing Information, M NE APARTMENT ZN SAC, Cooling, Sensible, 4595.56, 0.30668, 0.30668, CHICAGO OHARE INTL AP ANN CLG .4% CONDNS DB=>MWB, 7/21 05:00:00
 System Sizing Information, M NE APARTMENT ZN SAC, Heating, Sensible, 1631.59, 2.61499E-002, 2.61499E-002, CAMP MABRY ANN HTG 99.6% CONDNS DB, 1/21 00:01:00
 System Sizing Information, M NW APARTMENT ZN SAC, Cooling, Sensible, 5610.25, 0.37665, 0.37665, CHICAGO OHARE INTL AP ANN CLG .4% CONDNS DB=>MWB, 7/21 05:00:00
 System Sizing Information, M NW APARTMENT ZN SAC, Heating, Sensible, 1631.59, 2.61499E-002, 2.61499E-002, CAMP MABRY ANN HTG 99.6% CONDNS DB, 1/21 00:01:00
 System Sizing Information, M S1 APARTMENT ZN SAC, Cooling, Sensible, 3366.95, 0.21284, 0.21284, CHICAGO OHARE INTL AP ANN CLG .4% CONDNS DB=>MWB, 7/21 05:00:00
 System Sizing Information, M S1 APARTMENT ZN SAC, Heating, Sensible, 1631.59, 2.61499E-002, 2.61499E-002, CAMP MABRY ANN HTG 99.6% CONDNS DB, 1/21 00:01:00
 System Sizing Information, M S2 APARTMENT ZN SAC, Cooling, Sensible, 3384.09, 0.21413, 0.21413, CHICAGO OHARE INTL AP ANN CLG .4% CONDNS DB=>MWB, 7/21 05:00:00
 System Sizing Information, M S2 APARTMENT ZN SAC, Heating, Sensible, 1631.59, 2.61499E-002, 2.61499E-002, CAMP MABRY ANN HTG 99.6% CONDNS DB, 1/21 00:01:00
 System Sizing Information, M SE APARTMENT ZN SAC, Cooling, Sensible, 4755.93, 0.31592, 0.31592, CHICAGO OHARE INTL AP ANN CLG .4% CONDNS DB=>MWB, 7/21 05:00:00
 System Sizing Information, M SE APARTMENT ZN SAC, Heating, Sensible, 1631.59, 2.61499E-002, 2.61499E-002, CAMP MABRY ANN HTG 99.6% CONDNS DB, 1/21 00:01:00
 System Sizing Information, M SW APARTMENT ZN SAC, Cooling, Sensible, 5570.91, 0.37336, 0.37336, CHICAGO OHARE INTL AP ANN CLG .4% CONDNS DB=>MWB, 7/21 05:00:00
 System Sizing Information, M SW APARTMENT ZN SAC, Heating, Sensible, 1631.59, 2.61499E-002, 2.61499E-002, CAMP MABRY ANN HTG 99.6% CONDNS DB, 1/21 00:01:00
 System Sizing Information, OFFICE ZN SAC, Cooling, Sensible, 5991.92, 0.40394, 0.40394, CHICAGO OHARE INTL AP ANN CLG .4% CONDNS DB=>MWB, 7/21 05:00:00
 System Sizing Information, OFFICE ZN SAC, Heating, Sensible, 2377.58, 3.81060E-002, 3.81060E-002, CAMP MABRY ANN HTG 99.6% CONDNS DB, 1/21 00:01:00
 System Sizing Information, T N1 APARTMENT ZN SAC, Cooling, Sensible, 4499.58, 0.30130, 0.30130, CHICAGO OHARE INTL AP ANN CLG .4% CONDNS DB=>MWB, 7/21 05:00:00
 System Sizing Information, T N1 APARTMENT ZN SAC, Heating, Sensible, 1821.48, 3.15264E-002, 3.15264E-002, CAMP MABRY ANN HTG 99.6% CONDNS DB, 1/21 15:00:00
 System Sizing Information, T N2 APARTMENT ZN SAC, Cooling, Sensible, 4467.22, 0.29901, 0.29901, CHICAGO OHARE INTL AP ANN CLG .4% CONDNS DB=>MWB, 7/21 05:00:00
 System Sizing Information, T N2 APARTMENT ZN SAC, Heating, Sensible, 1821.47, 3.15262E-002, 3.15262E-002, CAMP MABRY ANN HTG 99.6% CONDNS DB, 1/21 15:00:00
 System Sizing Information, T NE APARTMENT ZN SAC, Cooling, Sensible, 5257.55, 0.35463, 0.35463, CHICAGO OHARE INTL AP ANN CLG .4% CONDNS DB=>MWB, 7/21 05:00:00
 System Sizing Information, T NE APARTMENT ZN SAC, Heating, Sensible, 2377.22, 4.72620E-002, 4.72620E-002, CAMP MABRY ANN HTG 99.6% CONDNS DB, 1/21 15:00:00
 System Sizing Information, T NW APARTMENT ZN SAC, Cooling, Sensible, 6672.73, 0.45258, 0.45258, CHICAGO OHARE INTL AP ANN CLG .4% CONDNS DB=>MWB, 7/21 05:00:00
 System Sizing Information, T NW APARTMENT ZN SAC, Heating, Sensible, 2377.22, 4.72620E-002, 4.72620E-002, CAMP MABRY ANN HTG 99.6% CONDNS DB, 1/21 15:00:00
 System Sizing Information, T S1 APARTMENT ZN SAC, Cooling, Sensible, 4313.06, 0.28810, 0.28810, CHICAGO OHARE INTL AP ANN CLG .4% CONDNS DB=>MWB, 7/21 05:00:00
 System Sizing Information, T S1 APARTMENT ZN SAC, Heating, Sensible, 1812.35, 3.12680E-002, 3.12680E-002, CAMP MABRY ANN HTG 99.6% CONDNS DB, 1/21 15:00:00
 System Sizing Information, T S2 APARTMENT ZN SAC, Cooling, Sensible, 4281.26, 0.28585, 0.28585, CHICAGO OHARE INTL AP ANN CLG .4% CONDNS DB=>MWB, 7/21 05:00:00
 System Sizing Information, T S2 APARTMENT ZN SAC, Heating, Sensible, 1812.35, 3.12680E-002, 3.12680E-002, CAMP MABRY ANN HTG 99.6% CONDNS DB, 1/21 15:00:00
 System Sizing Information, T SE APARTMENT ZN SAC, Cooling, Sensible, 5147.50, 0.34434, 0.34434, CHICAGO OHARE INTL AP ANN CLG .4% CONDNS DB=>MWB, 7/21 05:00:00
 System Sizing Information, T SE APARTMENT ZN SAC, Heating, Sensible, 2367.68, 4.69918E-002, 4.69918E-002, CAMP MABRY ANN HTG 99.6% CONDNS DB, 1/21 15:00:00
 System Sizing Information, T SW APARTMENT ZN SAC, Cooling, Sensible, 6624.47, 0.44845, 0.44845, CHICAGO OHARE INTL AP ANN CLG .4% CONDNS DB=>MWB, 7/21 05:00:00
 System Sizing Information, T SW APARTMENT ZN SAC, Heating, Sensible, 2367.68, 4.69918E-002, 4.69918E-002, CAMP MABRY ANN HTG 99.6% CONDNS DB, 1/21 15:00:00
! <Component Sizing Information>, Component Type, Component Name, Input Field Description, Value
 Component Sizing Information, AirTerminal:SingleDuct:ConstantVolume:NoReheat, G N1 APARTMENT ZN SAC DIFFUSER, Design Size Maximum Air Flow Rate [m3/s], 0.17498
 Component Sizing Information, AirTerminal:SingleDuct:ConstantVolume:NoReheat, G N2 APARTMENT ZN SAC DIFFUSER, Design Size Maximum Air Flow Rate [m3/s], 0.17313
 Component Sizing Information, AirTerminal:SingleDuct:ConstantVolume:NoReheat, G NE APARTMENT ZN SAC DIFFUSER, Design Size Maximum Air Flow Rate [m3/s], 0.22862
 Component Sizing Information, AirTerminal:SingleDuct:ConstantVolume:NoReheat, G NW APARTMENT ZN SAC DIFFUSER, Design Size Maximum Air Flow Rate [m3/s], 0.29267
 Component Sizing Information, AirTerminal:SingleDuct:ConstantVolume:NoReheat, G S1 APARTMENT ZN SAC DIFFUSER, Design Size Maximum Air Flow Rate [m3/s], 0.16487
 Component Sizing Information, AirTerminal:SingleDuct:ConstantVolume:NoReheat, G S2 APARTMENT ZN SAC DIFFUSER, Design Size Maximum Air Flow Rate [m3/s], 0.16201
 Component Sizing Information, AirTerminal:SingleDuct:ConstantVolume:NoReheat, G SW APARTMENT ZN SAC DIFFUSER, Design Size Maximum Air Flow Rate [m3/s], 0.28918
 Component Sizing Information, AirTerminal:SingleDuct:ConstantVolume:NoReheat, M N1 APARTMENT ZN SAC DIFFUSER, Design Size Maximum Air Flow Rate [m3/s], 0.22279
 Component Sizing Information, AirTerminal:SingleDuct:ConstantVolume:NoReheat, M N2 APARTMENT ZN SAC DIFFUSER, Design Size Maximum Air Flow Rate [m3/s], 0.22033
 Component Sizing Information, AirTerminal:SingleDuct:ConstantVolume:NoReheat, M NE APARTMENT ZN SAC DIFFUSER, Design Size Maximum Air Flow Rate [m3/s], 0.30668
 Component Sizing Information, AirTerminal:SingleDuct:ConstantVolume:NoReheat, M NW APARTMENT ZN SAC DIFFUSER, Design Size Maximum Air Flow Rate [m3/s], 0.37665
 Component Sizing Information, AirTerminal:SingleDuct:ConstantVolume:NoReheat, M S1 APARTMENT ZN SAC DIFFUSER, Design Size Maximum Air Flow Rate [m3/s], 0.21284
 Component Sizing Information, AirTerminal:SingleDuct:ConstantVolume:NoReheat, M S2 APARTMENT ZN SAC DIFFUSER, Design Size Maximum Air Flow Rate [m3/s], 0.21413
 Component Sizing Information, AirTerminal:SingleDuct:ConstantVolume:NoReheat, M SE APARTMENT ZN SAC DIFFUSER, Design Size Maximum Air Flow Rate [m3/s], 0.31592
 Component Sizing Information, AirTerminal:SingleDuct:ConstantVolume:NoReheat, M SW APARTMENT ZN SAC DIFFUSER, Design Size Maximum Air Flow Rate [m3/s], 0.37336
 Component Sizing Information, AirTerminal:SingleDuct:ConstantVolume:NoReheat, OFFICE ZN SAC DIFFUSER, Design Size Maximum Air Flow Rate [m3/s], 0.40394
 Component Sizing Information, AirTerminal:SingleDuct:ConstantVolume:NoReheat, T N1 APARTMENT ZN SAC DIFFUSER, Design Size Maximum Air Flow Rate [m3/s], 0.30130
 Component Sizing Information, AirTerminal:SingleDuct:ConstantVolume:NoReheat, T N2 APARTMENT ZN SAC DIFFUSER, Design Size Maximum Air Flow Rate [m3/s], 0.29901
 Component Sizing Information, AirTerminal:SingleDuct:ConstantVolume:NoReheat, T NE APARTMENT ZN SAC DIFFUSER, Design Size Maximum Air Flow Rate [m3/s], 0.35463
 Component Sizing Information, AirTerminal:SingleDuct:ConstantVolume:NoReheat, T NW APARTMENT ZN SAC DIFFUSER, Design Size Maximum Air Flow Rate [m3/s], 0.45258
 Component Sizing Information, AirTerminal:SingleDuct:ConstantVolume:NoReheat, T S1 APARTMENT ZN SAC DIFFUSER, Design Size Maximum Air Flow Rate [m3/s], 0.28810
 Component Sizing Information, AirTerminal:SingleDuct:ConstantVolume:NoReheat, T S2 APARTMENT ZN SAC DIFFUSER, Design Size Maximum Air Flow Rate [m3/s], 0.28585
[...]
 Component Sizing Information, Coil:Heating:Fuel, M SE APARTMENT ZN SAC GAS HTG COIL, Design Size Nominal Capacity [W], 11865.71226
 Component Sizing Information, Coil:Heating:Fuel, M SE APARTMENT ZN PSZ-AC GAS BACKUP HTG COIL, Design Size Nominal Capacity [W], 11865.71226
 Component Sizing Information, Fan:ConstantVolume, M SE APARTMENT ZN SAC FAN, Design Size Maximum Flow Rate [m3/s], 0.31592
 Component Sizing Information, Controller:OutdoorAir, M SW APARTMENT ZN SAC OA SYS CONTROLLER, Maximum Outdoor Air Flow Rate [m3/s], 0.37336
 Component Sizing Information, Controller:OutdoorAir, M SW APARTMENT ZN SAC OA SYS CONTROLLER, Minimum Outdoor Air Flow Rate [m3/s], 2.61499E-002
 Component Sizing Information, HeatExchanger:AirToAir:SensibleAndLatent, M SW APARTMENT ZN SAC ERV, Design Size Nominal Supply Air Flow Rate [m3/s], 2.61499E-002
 Component Sizing Information, Coil:Cooling:DX:SingleSpeed, M SW APARTMENT ZN COIL, Design Size Rated Air Flow Rate [m3/s], 0.37336
 Component Sizing Information, Coil:Cooling:DX:SingleSpeed, M SW APARTMENT ZN COIL, Design Size Gross Rated Total Cooling Capacity [W], 7488.88714
 Component Sizing Information, Coil:Cooling:DX:SingleSpeed, M SW APARTMENT ZN COIL, Design Size Gross Rated Sensible Heat Ratio, 0.77142
 DX Cooling Coil Standard Rating Information, Coil:Cooling:DX:SingleSpeed, M SW APARTMENT ZN COIL, 7195.5, 3.20, 10.93, 10.84, 10.94
 Component Sizing Information, Coil:Heating:Fuel, M SW APARTMENT ZN SAC GAS HTG COIL, Design Size Nominal Capacity [W], 13894.25799
 Component Sizing Information, Coil:Heating:Fuel, M SW APARTMENT ZN PSZ-AC GAS BACKUP HTG COIL, Design Size Nominal Capacity [W], 13894.25799
 Component Sizing Information, Fan:ConstantVolume, M SW APARTMENT ZN SAC FAN, Design Size Maximum Flow Rate [m3/s], 0.37336
 Component Sizing Information, Controller:OutdoorAir, OFFICE ZN SAC OA SYS CONTROLLER, Maximum Outdoor Air Flow Rate [m3/s], 0.40394
 Component Sizing Information, Controller:OutdoorAir, OFFICE ZN SAC OA SYS CONTROLLER, Minimum Outdoor Air Flow Rate [m3/s], 3.81060E-002
 Component Sizing Information, Coil:Cooling:DX:SingleSpeed, OFFICE ZN COIL, Design Size Rated Air Flow Rate [m3/s], 0.40394
 Component Sizing Information, Coil:Cooling:DX:SingleSpeed, OFFICE ZN COIL, Design Size Gross Rated Total Cooling Capacity [W], 7840.00872
 Component Sizing Information, Coil:Cooling:DX:SingleSpeed, OFFICE ZN COIL, Design Size Gross Rated Sensible Heat Ratio, 0.78457
 DX Cooling Coil Standard Rating Information, Coil:Cooling:DX:SingleSpeed, OFFICE ZN COIL, 7522.7, 3.18, 10.86, 10.77, 10.85
 Component Sizing Information, Coil:Heating:Fuel, OFFICE ZN SAC GAS HTG COIL, Design Size Nominal Capacity [W], 15298.00987
 Component Sizing Information, Coil:Heating:Fuel, OFFICE ZN PSZ-AC GAS BACKUP HTG COIL, Design Size Nominal Capacity [W], 15298.00987
 Component Sizing Information, Fan:ConstantVolume, OFFICE ZN SAC FAN, Design Size Maximum Flow Rate [m3/s], 0.40394
 Component Sizing Information, Controller:OutdoorAir, T N1 APARTMENT ZN SAC OA SYS CONTROLLER, Maximum Outdoor Air Flow Rate [m3/s], 0.30130
 Component Sizing Information, Controller:OutdoorAir, T N1 APARTMENT ZN SAC OA SYS CONTROLLER, Minimum Outdoor Air Flow Rate [m3/s], 2.61499E-002
 Component Sizing Information, HeatExchanger:AirToAir:SensibleAndLatent, T N1 APARTMENT ZN SAC ERV, Design Size Nominal Supply Air Flow Rate [m3/s], 2.61499E-002
 Component Sizing Information, Coil:Cooling:DX:SingleSpeed, T N1 APARTMENT ZN COIL, Design Size Rated Air Flow Rate [m3/s], 0.30130
 Component Sizing Information, Coil:Cooling:DX:SingleSpeed, T N1 APARTMENT ZN COIL, Design Size Gross Rated Total Cooling Capacity [W], 6100.26412
 Component Sizing Information, Coil:Cooling:DX:SingleSpeed, T N1 APARTMENT ZN COIL, Design Size Gross Rated Sensible Heat Ratio, 0.76760
 DX Cooling Coil Standard Rating Information, Coil:Cooling:DX:SingleSpeed, T N1 APARTMENT ZN COIL, 5863.4, 3.21, 10.94, 10.86, 10.97
 Component Sizing Information, Coil:Heating:Fuel, T N1 APARTMENT ZN SAC GAS HTG COIL, Design Size Nominal Capacity [W], 11349.22687
 Component Sizing Information, Coil:Heating:Fuel, T N1 APARTMENT ZN PSZ-AC GAS BACKUP HTG COIL, Design Size Nominal Capacity [W], 11349.22687
 Component Sizing Information, Fan:ConstantVolume, T N1 APARTMENT ZN SAC FAN, Design Size Maximum Flow Rate [m3/s], 0.30130
 Component Sizing Information, Controller:OutdoorAir, T N2 APARTMENT ZN SAC OA SYS CONTROLLER, Maximum Outdoor Air Flow Rate [m3/s], 0.29901
 Component Sizing Information, Controller:OutdoorAir, T N2 APARTMENT ZN SAC OA SYS CONTROLLER, Minimum Outdoor Air Flow Rate [m3/s], 2.61499E-002
 Component Sizing Information, HeatExchanger:AirToAir:SensibleAndLatent, T N2 APARTMENT ZN SAC ERV, Design Size Nominal Supply Air Flow Rate [m3/s], 2.61499E-002
 Component Sizing Information, Coil:Cooling:DX:SingleSpeed, T N2 APARTMENT ZN COIL, Design Size Rated Air Flow Rate [m3/s], 0.29901
 Component Sizing Information, Coil:Cooling:DX:SingleSpeed, T N2 APARTMENT ZN COIL, Design Size Gross Rated Total Cooling Capacity [W], 6062.26456
 Component Sizing Information, Coil:Cooling:DX:SingleSpeed, T N2 APARTMENT ZN COIL, Design Size Gross Rated Sensible Heat Ratio, 0.76718
 DX Cooling Coil Standard Rating Information, Coil:Cooling:DX:SingleSpeed, T N2 APARTMENT ZN COIL, 5827.2, 3.21, 10.94, 10.86, 10.97
 Component Sizing Information, Coil:Heating:Fuel, T N2 APARTMENT ZN SAC GAS HTG COIL, Design Size Nominal Capacity [W], 11268.31766
 Component Sizing Information, Coil:Heating:Fuel, T N2 APARTMENT ZN PSZ-AC GAS BACKUP HTG COIL, Design Size Nominal Capacity [W], 11268.31766
 Component Sizing Information, Fan:ConstantVolume, T N2 APARTMENT ZN SAC FAN, Design Size Maximum Flow Rate [m3/s], 0.29901
 Component Sizing Information, Controller:OutdoorAir, T NE APARTMENT ZN SAC OA SYS CONTROLLER, Maximum Outdoor Air Flow Rate [m3/s], 0.35463
 Component Sizing Information, Controller:OutdoorAir, T NE APARTMENT ZN SAC OA SYS CONTROLLER, Minimum Outdoor Air Flow Rate [m3/s], 2.61499E-002
 Component Sizing Information, HeatExchanger:AirToAir:SensibleAndLatent, T NE APARTMENT ZN SAC ERV, Design Size Nominal Supply Air Flow Rate [m3/s], 2.61499E-002
 Component Sizing Information, Coil:Cooling:DX:SingleSpeed, T NE APARTMENT ZN COIL, Design Size Rated Air Flow Rate [m3/s], 0.35463
 Component Sizing Information, Coil:Cooling:DX:SingleSpeed, T NE APARTMENT ZN COIL, Design Size Gross Rated Total Cooling Capacity [W], 7208.97567
 Component Sizing Information, Coil:Cooling:DX:SingleSpeed, T NE APARTMENT ZN COIL, Design Size Gross Rated Sensible Heat Ratio, 0.76639
 DX Cooling Coil Standard Rating Information, Coil:Cooling:DX:SingleSpeed, T NE APARTMENT ZN COIL, 6930.2, 3.21, 10.95, 10.86, 10.98
 Component Sizing Information, Coil:Heating:Fuel, T NE APARTMENT ZN SAC GAS HTG COIL, Design Size Nominal Capacity [W], 13232.79296
 Component Sizing Information, Coil:Heating:Fuel, T NE APARTMENT ZN PSZ-AC GAS BACKUP HTG COIL, Design Size Nominal Capacity [W], 13232.79296
 Component Sizing Information, Fan:ConstantVolume, T NE APARTMENT ZN SAC FAN, Design Size Maximum Flow Rate [m3/s], 0.35463
 Component Sizing Information, Controller:OutdoorAir, T NW APARTMENT ZN SAC OA SYS CONTROLLER, Maximum Outdoor Air Flow Rate [m3/s], 0.45258
 Component Sizing Information, Controller:OutdoorAir, T NW APARTMENT ZN SAC OA SYS CONTROLLER, Minimum Outdoor Air Flow Rate [m3/s], 2.61499E-002
 Component Sizing Information, Coil:Cooling:DX:SingleSpeed, T NW APARTMENT ZN COIL, Design Size Rated Air Flow Rate [m3/s], 0.45258
 Component Sizing Information, Coil:Cooling:DX:SingleSpeed, T NW APARTMENT ZN COIL, Design Size Gross Rated Total Cooling Capacity [W], 8914.72893
 Component Sizing Information, Coil:Cooling:DX:SingleSpeed, T NW APARTMENT ZN COIL, Design Size Gross Rated Sensible Heat Ratio, 0.77897
 DX Cooling Coil Standard Rating Information, Coil:Cooling:DX:SingleSpeed, T NW APARTMENT ZN COIL, 8559.1, 3.19, 10.89, 10.80, 10.89
 Component Sizing Information, Coil:Heating:Fuel, T NW APARTMENT ZN SAC GAS HTG COIL, Design Size Nominal Capacity [W], 16691.98302
 Component Sizing Information, Coil:Heating:Fuel, T NW APARTMENT ZN PSZ-AC GAS BACKUP HTG COIL, Design Size Nominal Capacity [W], 16691.98302
 Component Sizing Information, Fan:ConstantVolume, T NW APARTMENT ZN SAC FAN, Design Size Maximum Flow Rate [m3/s], 0.45258
 Component Sizing Information, Controller:OutdoorAir, T S1 APARTMENT ZN SAC OA SYS CONTROLLER, Maximum Outdoor Air Flow Rate [m3/s], 0.28810
 Component Sizing Information, Controller:OutdoorAir, T S1 APARTMENT ZN SAC OA SYS CONTROLLER, Minimum Outdoor Air Flow Rate [m3/s], 2.61499E-002
 Component Sizing Information, HeatExchanger:AirToAir:SensibleAndLatent, T S1 APARTMENT ZN SAC ERV, Design Size Nominal Supply Air Flow Rate [m3/s], 2.61499E-002
 Component Sizing Information, Coil:Cooling:DX:SingleSpeed, T S1 APARTMENT ZN COIL, Design Size Rated Air Flow Rate [m3/s], 0.28810
 Component Sizing Information, Coil:Cooling:DX:SingleSpeed, T S1 APARTMENT ZN COIL, Design Size Gross Rated Total Cooling Capacity [W], 5880.42095
 Component Sizing Information, Coil:Cooling:DX:SingleSpeed, T S1 APARTMENT ZN COIL, Design Size Gross Rated Sensible Heat Ratio, 0.76417
 DX Cooling Coil Standard Rating Information, Coil:Cooling:DX:SingleSpeed, T S1 APARTMENT ZN COIL, 5653.9, 3.21, 10.96, 10.87, 10.99
 Component Sizing Information, Coil:Heating:Fuel, T S1 APARTMENT ZN SAC GAS HTG COIL, Design Size Nominal Capacity [W], 10882.90953
 Component Sizing Information, Coil:Heating:Fuel, T S1 APARTMENT ZN PSZ-AC GAS BACKUP HTG COIL, Design Size Nominal Capacity [W], 10882.90953
 Component Sizing Information, Fan:ConstantVolume, T S1 APARTMENT ZN SAC FAN, Design Size Maximum Flow Rate [m3/s], 0.28810
 Component Sizing Information, Controller:OutdoorAir, T S2 APARTMENT ZN SAC OA SYS CONTROLLER, Maximum Outdoor Air Flow Rate [m3/s], 0.28585
 Component Sizing Information, Controller:OutdoorAir, T S2 APARTMENT ZN SAC OA SYS CONTROLLER, Minimum Outdoor Air Flow Rate [m3/s], 2.61499E-002
 Component Sizing Information, HeatExchanger:AirToAir:SensibleAndLatent, T S2 APARTMENT ZN SAC ERV, Design Size Nominal Supply Air Flow Rate [m3/s], 2.61499E-002
 Component Sizing Information, Coil:Cooling:DX:SingleSpeed, T S2 APARTMENT ZN COIL, Design Size Rated Air Flow Rate [m3/s], 0.28585
 Component Sizing Information, Coil:Cooling:DX:SingleSpeed, T S2 APARTMENT ZN COIL, Design Size Gross Rated Total Cooling Capacity [W], 5842.96559
 Component Sizing Information, Coil:Cooling:DX:SingleSpeed, T S2 APARTMENT ZN COIL, Design Size Gross Rated Sensible Heat Ratio, 0.76374
 DX Cooling Coil Standard Rating Information, Coil:Cooling:DX:SingleSpeed, T S2 APARTMENT ZN COIL, 5618.2, 3.21, 10.96, 10.87, 11.00
 Component Sizing Information, Coil:Heating:Fuel, T S2 APARTMENT ZN SAC GAS HTG COIL, Design Size Nominal Capacity [W], 10803.40475
 Component Sizing Information, Coil:Heating:Fuel, T S2 APARTMENT ZN PSZ-AC GAS BACKUP HTG COIL, Design Size Nominal Capacity [W], 10803.40475
 Component Sizing Information, Fan:ConstantVolume, T S2 APARTMENT ZN SAC FAN, Design Size Maximum Flow Rate [m3/s], 0.28585
 Component Sizing Information, Controller:OutdoorAir, T SE APARTMENT ZN SAC OA SYS CONTROLLER, Maximum Outdoor Air Flow Rate [m3/s], 0.34434
 Component Sizing Information, Controller:OutdoorAir, T SE APARTMENT ZN SAC OA SYS CONTROLLER, Minimum Outdoor Air Flow Rate [m3/s], 2.61499E-002
 Component Sizing Information, Coil:Cooling:DX:SingleSpeed, T SE APARTMENT ZN COIL, Design Size Rated Air Flow Rate [m3/s], 0.34434
 Component Sizing Information, Coil:Cooling:DX:SingleSpeed, T SE APARTMENT ZN COIL, Design Size Gross Rated Total Cooling Capacity [W], 7106.15024
 Component Sizing Information, Coil:Cooling:DX:SingleSpeed, T SE APARTMENT ZN COIL, Design Size Gross Rated Sensible Heat Ratio, 0.75990
 DX Cooling Coil Standard Rating Information, Coil:Cooling:DX:SingleSpeed, T SE APARTMENT ZN COIL, 6835.4, 3.22, 10.98, 10.89, 11.02
 Component Sizing Information, Coil:Heating:Fuel, T SE APARTMENT ZN SAC GAS HTG COIL, Design Size Nominal Capacity [W], 12869.15133
 Component Sizing Information, Coil:Heating:Fuel, T SE APARTMENT ZN PSZ-AC GAS BACKUP HTG COIL, Design Size Nominal Capacity [W], 12869.15133
 Component Sizing Information, Fan:ConstantVolume, T SE APARTMENT ZN SAC FAN, Design Size Maximum Flow Rate [m3/s], 0.34434
 Component Sizing Information, Controller:OutdoorAir, T SW APARTMENT ZN SAC OA SYS CONTROLLER, Maximum Outdoor Air Flow Rate [m3/s], 0.44845
 Component Sizing Information, Controller:OutdoorAir, T SW APARTMENT ZN SAC OA SYS CONTROLLER, Minimum Outdoor Air Flow Rate [m3/s], 2.61499E-002
 Component Sizing Information, Coil:Cooling:DX:SingleSpeed, T SW APARTMENT ZN COIL, Design Size Rated Air Flow Rate [m3/s], 0.44845
 Component Sizing Information, Coil:Cooling:DX:SingleSpeed, T SW APARTMENT ZN COIL, Design Size Gross Rated Total Cooling Capacity [W], 8866.85040
 Component Sizing Information, Coil:Cooling:DX:SingleSpeed, T SW APARTMENT ZN COIL, Design Size Gross Rated Sensible Heat Ratio, 0.77681
 DX Cooling Coil Standard Rating Information, Coil:Cooling:DX:SingleSpeed, T SW APARTMENT ZN COIL, 8514.5, 3.19, 10.90, 10.81, 10.90
 Component Sizing Information, Coil:Heating:Fuel, T SW APARTMENT ZN SAC GAS HTG COIL, Design Size Nominal Capacity [W], 16546.29803
 Component Sizing Information, Coil:Heating:Fuel, T SW APARTMENT ZN PSZ-AC GAS BACKUP HTG COIL, Design Size Nominal Capacity [W], 16546.29803
 Component Sizing Information, Fan:ConstantVolume, T SW APARTMENT ZN SAC FAN, Design Size Maximum Flow Rate [m3/s], 0.44845
Water Heater Information,WaterHeater:Mixed,50GAL ELECTRICITY WATER HEATER - 50KBTU/HR 1.0 THERM EFF,0.1892,14653.5,1.093,0.9666
Water Heater Information,WaterHeater:Mixed,50GAL ELECTRICITY WATER HEATER - 50KBTU/HR 1.0,0.1892,14563.5,1.093,0.9667
 Component Sizing Information, PlantLoop, PLANT LOOP 1, Maximum Loop Flow Rate [m3/s], 3.65887E-006
 Component Sizing Information, PlantLoop, PLANT LOOP 1, Plant Loop Volume [m3], 4.39065E-004
 Component Sizing Information, Pump:ConstantSpeed, SERVICE LOOP PUMP 1, Design Flow Rate [m3/s], 3.65887E-006
 Component Sizing Information, Pump:ConstantSpeed, SERVICE LOOP PUMP 1, Design Power Consumption [W], 0.93480
 Component Sizing Information, WaterHeater:Mixed, 50GAL ELECTRICITY WATER HEATER - 50KBTU/HR 1.0 THERM EFF, Use Side Design Flow Rate [m3/s], 3.65887E-006
 Component Sizing Information, PlantLoop, PLANT LOOP 2, Maximum Loop Flow Rate [m3/s], 3.65887E-006
 Component Sizing Information, PlantLoop, PLANT LOOP 2, Plant Loop Volume [m3], 4.39065E-004
 Component Sizing Information, Pump:ConstantSpeed, SERVICE LOOP PUMP 2, Design Flow Rate [m3/s], 3.65887E-006
 Component Sizing Information, Pump:ConstantSpeed, SERVICE LOOP PUMP 2, Design Power Consumption [W], 0.93480
 Component Sizing Information, WaterHeater:Mixed, 50GAL ELECTRICITY WATER HEATER - 50KBTU/HR 1.0, Use Side Design Flow Rate [m3/s], 3.65887E-006
! <Environment>,Environment Name,Environment Type, Start Date, End Date, Start DayOfWeek, Duration {#days}, Source:Start DayOfWeek,  Use Daylight Saving, Use Holidays, Apply Weekend Holiday Rule,  Use Rain Values, Use Snow Values
! <Environment:Special Days>, Special Day Name, Special Day Type, Source, Start Date, Duration {#days}
! <Environment:Daylight Saving>, Daylight Saving Indicator, Source, Start Date, End Date
! <Environment:WarmupDays>, NumberofWarmupDays
Environment,RUN PERIOD 1,WeatherFileRunPeriod,07/24/2006,07/30/2006,Monday,7,Use RunPeriod Specified Day,No,No,Yes,Yes,Yes
Environment:Daylight Saving,No,RunPeriod Object
Environment:WarmupDays,  6
! <Warmup Convergence Information>,Zone Name,Environment Type/Name,Average Warmup Temperature Difference {deltaC},Std Dev Warmup Temperature Difference {deltaC},Max Temperature Pass/Fail Convergence,Min Temperature Pass/Fail Convergence,Average Warmup Load Difference {W},Std Dev Warmup Load Difference {W},Heating Load Pass/Fail Convergence,Cooling Load Pass/Fail Convergence
 Warmup Convergence Information,G CORRIDOR ZN,RunPeriod: RUN PERIOD 1,6.3823792290E-003,1.8852911127E-002,Pass,Pass,0.0000000000,0.0000000000,Pass,Pass
 Warmup Convergence Information,G N1 APARTMENT ZN,RunPeriod: RUN PERIOD 1,2.9267482963E-007,1.7215334727E-006,Pass,Pass,2.3455276840E-003,9.9169760576E-003,Pass,Pass
 Warmup Convergence Information,G N2 APARTMENT ZN,RunPeriod: RUN PERIOD 1,2.9382342399E-007,1.7276692987E-006,Pass,Pass,2.3401604719E-003,9.9838206493E-003,Pass,Pass
 Warmup Convergence Information,G NE APARTMENT ZN,RunPeriod: RUN PERIOD 1,3.6655922684E-007,1.6082072536E-006,Pass,Pass,2.7944168509E-003,9.1936920629E-003,Pass,Pass
 Warmup Convergence Information,G NW APARTMENT ZN,RunPeriod: RUN PERIOD 1,3.0620344247E-007,1.5393987353E-006,Pass,Pass,2.9155661366E-003,8.6383589914E-003,Pass,Pass
 Warmup Convergence Information,G S1 APARTMENT ZN,RunPeriod: RUN PERIOD 1,3.2041502404E-007,1.7812866370E-006,Pass,Pass,2.2875510860E-003,9.6012877382E-003,Pass,Pass
 Warmup Convergence Information,G S2 APARTMENT ZN,RunPeriod: RUN PERIOD 1,3.2364304638E-007,1.7838103422E-006,Pass,Pass,2.3091673878E-003,9.7399188609E-003,Pass,Pass
 Warmup Convergence Information,G SW APARTMENT ZN,RunPeriod: RUN PERIOD 1,3.1090774004E-007,1.5340974311E-006,Pass,Pass,2.8716993702E-003,8.3103393109E-003,Pass,Pass
 Warmup Convergence Information,M CORRIDOR ZN,RunPeriod: RUN PERIOD 1,1.1177356426E-003,9.9218482864E-004,Pass,Pass,0.0000000000,0.0000000000,Pass,Pass
 Warmup Convergence Information,M N1 APARTMENT ZN,RunPeriod: RUN PERIOD 1,3.2014856605E-007,2.0086276612E-006,Pass,Pass,1.8333833903E-003,6.8324989073E-003,Pass,Pass
 Warmup Convergence Information,M N2 APARTMENT ZN,RunPeriod: RUN PERIOD 1,3.2120773655E-007,2.0137385990E-006,Pass,Pass,1.8267319576E-003,6.8822024303E-003,Pass,Pass
 Warmup Convergence Information,M NE APARTMENT ZN,RunPeriod: RUN PERIOD 1,4.0573895606E-007,1.7733767432E-006,Pass,Pass,2.3266906971E-003,6.5363429984E-003,Pass,Pass
 Warmup Convergence Information,M NW APARTMENT ZN,RunPeriod: RUN PERIOD 1,3.5642610916E-007,1.7085051316E-006,Pass,Pass,2.4611325625E-003,6.1892534436E-003,Pass,Pass
 Warmup Convergence Information,M S1 APARTMENT ZN,RunPeriod: RUN PERIOD 1,3.4935819018E-007,2.1054802696E-006,Pass,Pass,1.8266077790E-003,6.6034937367E-003,Pass,Pass
 Warmup Convergence Information,M S2 APARTMENT ZN,RunPeriod: RUN PERIOD 1,3.4563444480E-007,2.0893114046E-006,Pass,Pass,1.8241345603E-003,6.6499310412E-003,Pass,Pass
 Warmup Convergence Information,M SE APARTMENT ZN,RunPeriod: RUN PERIOD 1,4.0568742769E-007,1.7548199509E-006,Pass,Pass,2.3183551748E-003,6.3462684930E-003,Pass,Pass
 Warmup Convergence Information,M SW APARTMENT ZN,RunPeriod: RUN PERIOD 1,3.5956752289E-007,1.7026993250E-006,Pass,Pass,2.4320527843E-003,5.9252366956E-003,Pass,Pass
 Warmup Convergence Information,OFFICE ZN,RunPeriod: RUN PERIOD 1,5.4029983318E-007,5.6606693755E-006,Pass,Pass,2.6801820075E-003,2.9902756154E-002,Pass,Pass
 Warmup Convergence Information,T CORRIDOR ZN,RunPeriod: RUN PERIOD 1,1.5579863031E-003,8.2485343305E-004,Pass,Pass,0.0000000000,0.0000000000,Pass,Pass
 Warmup Convergence Information,T N1 APARTMENT ZN,RunPeriod: RUN PERIOD 1,3.0133891682E-007,1.8890274035E-006,Pass,Pass,1.7317185866E-003,5.5552520165E-003,Pass,Pass
 Warmup Convergence Information,T N2 APARTMENT ZN,RunPeriod: RUN PERIOD 1,3.0179322769E-007,1.8920114482E-006,Pass,Pass,1.7248715323E-003,5.5837114902E-003,Pass,Pass
 Warmup Convergence Information,T NE APARTMENT ZN,RunPeriod: RUN PERIOD 1,4.3361514704E-007,1.7883719287E-006,Pass,Pass,2.1283805484E-003,5.4116414720E-003,Pass,Pass
 Warmup Convergence Information,T NW APARTMENT ZN,RunPeriod: RUN PERIOD 1,3.3880795701E-007,8.3985642124E-007,Pass,Pass,2.3030545359E-003,5.1550986345E-003,Pass,Pass
 Warmup Convergence Information,T S1 APARTMENT ZN,Run